3
Properties=species:S:1:pos:R:3 pbc="F F F"
O        0.76950092       0.10799686      -0.00000025
O       -0.49169625      -0.26621775       0.00000001
H        1.28662911      -0.71706048       0.00000001
3
Properties=species:S:1:pos:R:3 pbc="F F F"
O        0.76866037       0.10581335      -0.00000025
O       -0.49364845      -0.26469532       0.00000001
H        1.28942186      -0.71639940       0.00000001
3
Properties=species:S:1:pos:R:3 pbc="F F F"
O        0.76601395       0.10382890      -0.00000025
O       -0.49716359      -0.26201111       0.00000001
H        1.29558342      -0.71709916       0.00000001
3
Properties=species:S:1:pos:R:3 pbc="F F F"
O        0.75746761       0.08731428      -0.00000024
O       -0.51442821      -0.24880142       0.00000000
H        1.32139438      -0.71379424       0.00000001
3
Properties=species:S:1:pos:R:3 pbc="F F F"
O        0.74719727       0.07657503      -0.00000024
O       -0.53220602      -0.23657590      -0.00000000
H        1.34944252      -0.71528051       0.00000000
3
Properties=species:S:1:pos:R:3 pbc="F F F"
O        0.73381385       0.07475258      -0.00000023
O       -0.54735557      -0.22660873      -0.00000000
H        1.37797551      -0.72342523       0.00000001
3
Properties=species:S:1:pos:R:3 pbc="F F F"
O        0.71865876       0.07838008      -0.00000023
O       -0.56146591      -0.21799785      -0.00000001
H        1.40724093      -0.73566361       0.00000001
3
Properties=species:S:1:pos:R:3 pbc="F F F"
O        0.70188669       0.08675863      -0.00000024
O       -0.57298693      -0.21102013      -0.00000001
H        1.43553402      -0.75101988       0.00000001
3
Properties=species:S:1:pos:R:3 pbc="F F F"
O        0.68462746       0.09742193      -0.00000024
O       -0.58313976      -0.20502194      -0.00000001
H        1.46294608      -0.76768136       0.00000001
3
Properties=species:S:1:pos:R:3 pbc="F F F"
O        0.66660552       0.10970375      -0.00000024
O       -0.59152362      -0.19978532      -0.00000001
H        1.48935188      -0.78519980       0.00000002
3
Properties=species:S:1:pos:R:3 pbc="F F F"
O        0.64798686       0.12287954      -0.00000024
O       -0.59860392      -0.19500354      -0.00000001
H        1.51505084      -0.80315738       0.00000002
3
Properties=species:S:1:pos:R:3 pbc="F F F"
O        0.62890402       0.13657558      -0.00000025
O       -0.60472182      -0.19050437      -0.00000001
H        1.54025158      -0.82135258       0.00000003
3
Properties=species:S:1:pos:R:3 pbc="F F F"
O        0.60939816       0.15059270      -0.00000025
O       -0.61002466      -0.18618989      -0.00000001
H        1.56506028      -0.83968418       0.00000003
3
Properties=species:S:1:pos:R:3 pbc="F F F"
O        0.58930248       0.16468181      -0.00000025
O       -0.61439239      -0.18191975      -0.00000001
H        1.58952370      -0.85804344       0.00000004
3
Properties=species:S:1:pos:R:3 pbc="F F F"
O        0.56872867       0.17862057      -0.00000026
O       -0.61809921      -0.17756452      -0.00000001
H        1.61380432      -0.87633743       0.00000004
3
Properties=species:S:1:pos:R:3 pbc="F F F"
O        0.54875865       0.19255167      -0.00000026
O       -0.62274531      -0.17319394      -0.00000002
H        1.63842044      -0.89463910       0.00000004
3
Properties=species:S:1:pos:R:3 pbc="F F F"
O        0.53205631       0.20712280      -0.00000026
O       -0.63086215      -0.16961527      -0.00000002
H        1.66323963      -0.91278891       0.00000005
3
Properties=species:S:1:pos:R:3 pbc="F F F"
O        0.51270951       0.21921433      -0.00000027
O       -0.63513085      -0.16472378      -0.00000002
H        1.68685511      -0.92977192       0.00000005
3
Properties=species:S:1:pos:R:3 pbc="F F F"
O        0.50242897       0.23142432      -0.00000027
O       -0.64484166      -0.16265250      -0.00000002
H        1.70684647      -0.94405319       0.00000006
3
Properties=species:S:1:pos:R:3 pbc="F F F"
O        0.48558867       0.24321415      -0.00000028
O       -0.65101099      -0.15820541      -0.00000002
H        1.72985610      -0.96029011       0.00000006
3
Properties=species:S:1:pos:R:3 pbc="F F F"
O        0.48299072       0.24699986      -0.00000028
O       -0.65448583      -0.15770459      -0.00000001
H        1.73592889      -0.96457665       0.00000006
3
Properties=species:S:1:pos:R:3 pbc="F F F"
O        0.46654152       0.26031374      -0.00000029
O       -0.66320207      -0.15341351      -0.00000001
H        1.76109433      -0.98218161       0.00000007
3
Properties=species:S:1:pos:R:3 pbc="F F F"
O        0.45079539       0.27415085       0.00000000
O       -0.67358807      -0.14918442       0.00000000
H        1.78722626      -1.00024778       0.00000000
3
Properties=species:S:1:pos:R:3 pbc="F F F"
O        0.43515250       0.28802356       0.00000029
O       -0.68408310      -0.14499002       0.00000001
H        1.81336400      -1.01831485      -0.00000007
3
Properties=species:S:1:pos:R:3 pbc="F F F"
O        0.42142471       0.30081127       0.00000031
O       -0.69469982      -0.14112251      -0.00000000
H        1.83770850      -1.03497006      -0.00000008
3
Properties=species:S:1:pos:R:3 pbc="F F F"
O        0.42037569       0.30111880       0.00000031
O       -0.69462070      -0.14076866      -0.00000000
H        1.83867840      -1.03563145      -0.00000008
3
Properties=species:S:1:pos:R:3 pbc="F F F"
O        0.40519680       0.31409213       0.00000032
O       -0.70481009      -0.13641625      -0.00000001
H        1.86404668      -1.05295719      -0.00000008
3
Properties=species:S:1:pos:R:3 pbc="F F F"
O        0.40405964       0.31580326       0.00000033
O       -0.70658826      -0.13614693      -0.00000001
H        1.86696201      -1.05493763      -0.00000008
3
Properties=species:S:1:pos:R:3 pbc="F F F"
O        0.40046771       0.31828506       0.00000033
O       -0.70829311      -0.13503529      -0.00000001
H        1.87225879      -1.05853108      -0.00000009
3
Properties=species:S:1:pos:R:3 pbc="F F F"
O        0.39891915       0.32037285       0.00000033
O       -0.71039984      -0.13464407      -0.00000001
H        1.87591409      -1.06101008      -0.00000009
3
Properties=species:S:1:pos:R:3 pbc="F F F"
O        0.39599696       0.32224320       0.00000033
O       -0.71160510      -0.13371924      -0.00000001
H        1.88004153      -1.06380526      -0.00000009
3
Properties=species:S:1:pos:R:3 pbc="F F F"
O        0.39392218       0.32480467       0.00000033
O       -0.71412564      -0.13316952      -0.00000001
H        1.88463685      -1.06691646      -0.00000009
3
Properties=species:S:1:pos:R:3 pbc="F F F"
O        0.39143880       0.32627161       0.00000033
O       -0.71500100      -0.13236616      -0.00000001
H        1.88799559      -1.06918675      -0.00000009
3
Properties=species:S:1:pos:R:3 pbc="F F F"
O        0.38859113       0.32952139       0.00000033
O       -0.71812380      -0.13158101      -0.00000001
H        1.89396607      -1.07322168      -0.00000009
3
Properties=species:S:1:pos:R:3 pbc="F F F"
O        0.38644772       0.33067392       0.00000033
O       -0.71874075      -0.13087147      -0.00000001
H        1.89672643      -1.07508375      -0.00000009
3
Properties=species:S:1:pos:R:3 pbc="F F F"
O        0.38222212       0.33514431       0.00000033
O       -0.72293272      -0.12966387      -0.00000001
H        1.90514399      -1.08076175      -0.00000009
3
Properties=species:S:1:pos:R:3 pbc="F F F"
O        0.38037845       0.33601661       0.00000033
O       -0.72331609      -0.12903710      -0.00000001
H        1.90737103      -1.08226081      -0.00000009
3
Properties=species:S:1:pos:R:3 pbc="F F F"
O        0.36822552       0.34760091       0.00000033
O       -0.73377223      -0.12540119      -0.00000000
H        1.92998009      -1.09748103      -0.00000010
3
Properties=species:S:1:pos:R:3 pbc="F F F"
O        0.36685190       0.34797217       0.00000033
O       -0.73370037      -0.12489981      -0.00000000
H        1.93128186      -1.09835367      -0.00000010
3
Properties=species:S:1:pos:R:3 pbc="F F F"
O        0.35166517       0.36058636       0.00000033
O       -0.74440726      -0.12015172       0.00000000
H        1.95717548      -1.11571595      -0.00000010
3
Properties=species:S:1:pos:R:3 pbc="F F F"
O        0.35045620       0.36233864       0.00000033
O       -0.74630155      -0.11983365       0.00000000
H        1.96027874      -1.11778630      -0.00000010
3
Properties=species:S:1:pos:R:3 pbc="F F F"
O        0.34710248       0.36452893       0.00000033
O       -0.74793027      -0.11870238       0.00000000
H        1.96526118      -1.12110785      -0.00000010
3
Properties=species:S:1:pos:R:3 pbc="F F F"
O        0.34556601       0.36653729       0.00000033
O       -0.75005003      -0.11827491       0.00000000
H        1.96891741      -1.12354369      -0.00000010
3
Properties=species:S:1:pos:R:3 pbc="F F F"
O        0.34287813       0.36816542       0.00000033
O       -0.75119641      -0.11735046       0.00000000
H        1.97275167      -1.12609626      -0.00000010
3
Properties=species:S:1:pos:R:3 pbc="F F F"
O        0.34092949       0.37050613       0.00000033
O       -0.75361310      -0.11678616       0.00000000
H        1.97711701      -1.12900127      -0.00000010
3
Properties=species:S:1:pos:R:3 pbc="F F F"
O        0.33868788       0.37176210       0.00000034
O       -0.75444006      -0.11600154       0.00000000
H        1.98018558      -1.13104186      -0.00000010
3
Properties=species:S:1:pos:R:3 pbc="F F F"
O        0.33614929       0.37458897       0.00000034
O       -0.75729534      -0.11524232       0.00000000
H        1.98557945      -1.13462795      -0.00000011
3
Properties=species:S:1:pos:R:3 pbc="F F F"
O        0.33425044       0.37556172       0.00000034
O       -0.75787915      -0.11456574       0.00000000
H        1.98806210      -1.13627729      -0.00000011
3
Properties=species:S:1:pos:R:3 pbc="F F F"
O        0.33071589       0.37922164       0.00000034
O       -0.76149207      -0.11347802       0.00000000
H        1.99520957      -1.14102493      -0.00000011
3
Properties=species:S:1:pos:R:3 pbc="F F F"
O        0.32911041       0.37995291       0.00000034
O       -0.76186854      -0.11289403       0.00000000
H        1.99719153      -1.14234018      -0.00000011
3
Properties=species:S:1:pos:R:3 pbc="F F F"
O        0.32332092       0.38551797       0.00000034
O       -0.76722782      -0.11106168       0.00000000
H        2.00834029      -1.14973760      -0.00000011
3
Properties=species:S:1:pos:R:3 pbc="F F F"
O        0.32200304       0.38600939       0.00000034
O       -0.76739732      -0.11056779       0.00000000
H        2.00982767      -1.15072290      -0.00000011
3
Properties=species:S:1:pos:R:3 pbc="F F F"
O        0.30870105       0.39790857       0.00000034
O       -0.77859958      -0.10623668       0.00000000
H        2.03433193      -1.16695319      -0.00000011
3
Properties=species:S:1:pos:R:3 pbc="F F F"
O        0.30767109       0.39814189       0.00000034
O       -0.77854239      -0.10582861       0.00000001
H        2.03530470      -1.16759458      -0.00000011
3
Properties=species:S:1:pos:R:3 pbc="F F F"
O        0.29296597       0.40995600       0.00000034
O       -0.78932221      -0.10084085       0.00000001
H        2.06078964      -1.18439646      -0.00000012
3
Properties=species:S:1:pos:R:3 pbc="F F F"
O        0.29220169       0.41110243       0.00000034
O       -0.79062063      -0.10063117       0.00000001
H        2.06285233      -1.18575257      -0.00000012
3
Properties=species:S:1:pos:R:3 pbc="F F F"
O        0.28947341       0.41287007       0.00000034
O       -0.79207244      -0.09965090       0.00000001
H        2.06703242      -1.18850048      -0.00000012
3
Properties=species:S:1:pos:R:3 pbc="F F F"
O        0.28852407       0.41415030       0.00000035
O       -0.79348845      -0.09937636       0.00000001
H        2.06939777      -1.19005525      -0.00000012
3
Properties=species:S:1:pos:R:3 pbc="F F F"
O        0.28636256       0.41546126       0.00000035
O       -0.79451869      -0.09858952       0.00000001
H        2.07258953      -1.19215305      -0.00000012
3
Properties=species:S:1:pos:R:3 pbc="F F F"
O        0.28519672       0.41690561       0.00000035
O       -0.79608282      -0.09823972       0.00000001
H        2.07531949      -1.19394720      -0.00000012
