4
Properties=species:S:1:pos:R:3 pbc="F F F"
O        0.77214997      -0.63237253      -0.20497242
O        1.21354312       0.58462349       0.03701907
H       -0.19474104      -0.52680946      -0.29875575
O       -2.09669020      -0.01633032      -0.09766354
4
Properties=species:S:1:pos:R:3 pbc="F F F"
O        0.75815454      -0.63236950      -0.19334374
O        1.21478785       0.58058578       0.03415755
H       -0.20409234      -0.51234347      -0.30945972
O       -2.07458819      -0.02676163      -0.09572672
4
Properties=species:S:1:pos:R:3 pbc="F F F"
O        0.75682943      -0.63334258      -0.19234879
O        1.21522083       0.58110276       0.03404670
H       -0.20538423      -0.51087661      -0.31052556
O       -2.07240417      -0.02777239      -0.09554499
4
Properties=species:S:1:pos:R:3 pbc="F F F"
O        0.74261926      -0.63249625      -0.18290335
O        1.21457392       0.57679696       0.03146773
H       -0.21542149      -0.49757305      -0.31844200
O       -2.04750983      -0.03761648      -0.09449501
4
Properties=species:S:1:pos:R:3 pbc="F F F"
O        0.74024058      -0.63379061      -0.18177996
O        1.21500648       0.57756862       0.03134204
H       -0.21712043      -0.49563450      -0.31957773
O       -2.04386477      -0.03903233      -0.09435698
4
Properties=species:S:1:pos:R:3 pbc="F F F"
O        0.72735632      -0.63219706      -0.17446504
O        1.21297634       0.57294847       0.02903976
H       -0.22699286      -0.48382418      -0.32490392
O       -2.01907794      -0.04781604      -0.09404343
4
Properties=species:S:1:pos:R:3 pbc="F F F"
O        0.71179195      -0.63178225      -0.16724017
O        1.21016370       0.56887425       0.02665215
H       -0.23945689      -0.46995610      -0.32952107
O       -1.98823690      -0.05802471      -0.09426355
4
Properties=species:S:1:pos:R:3 pbc="F F F"
O        0.70374792      -0.63338720      -0.16514617
O        1.20976207       0.56927616       0.02604201
H       -0.24378033      -0.46470433      -0.33075478
O       -1.97546779      -0.06207344      -0.09451371
4
Properties=species:S:1:pos:R:3 pbc="F F F"
O        0.69293263      -0.63147613      -0.16045412
O        1.20553616       0.56409174       0.02389683
H       -0.25490874      -0.45350105      -0.33237986
O       -1.94929819      -0.07000338      -0.09543549
4
Properties=species:S:1:pos:R:3 pbc="F F F"
O        0.67768605      -0.63205230      -0.15717138
O        1.20233994       0.56195946       0.02221272
H       -0.26626330      -0.44221057      -0.33241812
O       -1.91950083      -0.07858541      -0.09699586
4
Properties=species:S:1:pos:R:3 pbc="F F F"
O        0.65159376      -0.62695102      -0.15270881
O        1.19611330       0.55436205       0.01913343
H       -0.29583055      -0.42307646      -0.32887846
O       -1.85761465      -0.09522339      -0.10191880
4
Properties=species:S:1:pos:R:3 pbc="F F F"
O        0.64212701      -0.62121729      -0.15243545
O        1.19483117       0.55007155       0.01823151
H       -0.31519712      -0.41714021      -0.32452823
O       -1.82749920      -0.10260287      -0.10564046
4
Properties=species:S:1:pos:R:3 pbc="F F F"
O        0.63701421      -0.61321113      -0.15319240
O        1.19422354       0.54465111       0.01756584
H       -0.33783539      -0.41317583      -0.31857298
O       -1.79914050      -0.10915297      -0.11017310
4
Properties=species:S:1:pos:R:3 pbc="F F F"
O        0.63810589      -0.60434853      -0.15419065
O        1.19399779       0.53845953       0.01705236
H       -0.36392957      -0.41030584      -0.31219296
O       -1.77391207      -0.11469467      -0.11504167
4
Properties=species:S:1:pos:R:3 pbc="F F F"
O        0.64369100      -0.59632105      -0.15471951
O        1.19368127       0.53226399       0.01655071
H       -0.39225074      -0.40712764      -0.30647104
O       -1.75085935      -0.11970529      -0.11973330
4
Properties=species:S:1:pos:R:3 pbc="F F F"
O        0.65262594      -0.58984059      -0.15472452
O        1.19403960       0.52711286       0.01624107
H       -0.42241149      -0.40393317      -0.30186915
O       -1.72999189      -0.12422910      -0.12402053
4
Properties=species:S:1:pos:R:3 pbc="F F F"
O        0.66341828      -0.58420015      -0.15418518
O        1.19439177       0.52226843       0.01593455
H       -0.45320229      -0.40043126      -0.29821316
O       -1.71034558      -0.12852701      -0.12790935
4
Properties=species:S:1:pos:R:3 pbc="F F F"
O        0.67563931      -0.58003688      -0.15334361
O        1.19495433       0.51833707       0.01571170
H       -0.48459485      -0.39653408      -0.29523581
O       -1.69173661      -0.13265610      -0.13150542
4
Properties=species:S:1:pos:R:3 pbc="F F F"
O        0.68864260      -0.57737226      -0.15243742
O        1.19592379       0.51552700       0.01562394
H       -0.51641803      -0.39235985      -0.29260800
O       -1.67388618      -0.13668489      -0.13495166
4
Properties=species:S:1:pos:R:3 pbc="F F F"
O        0.70232006      -0.57621085      -0.15157176
O        1.19743697       0.51393591       0.01570243
H       -0.54860293      -0.38801269      -0.29019707
O       -1.65689193      -0.14060236      -0.13830674
4
Properties=species:S:1:pos:R:3 pbc="F F F"
O        0.71711165      -0.57662064      -0.15077654
O        1.19965811       0.51365331       0.01597922
H       -0.58111187      -0.38363906      -0.28801707
O       -1.64139572      -0.14428361      -0.14155874
4
Properties=species:S:1:pos:R:3 pbc="F F F"
O        0.73445603      -0.57889292      -0.15002473
O        1.20295030       0.51490999       0.01652307
H       -0.61374324      -0.37959250      -0.28630414
O       -1.62940092      -0.14731457      -0.14456734
4
Properties=species:S:1:pos:R:3 pbc="F F F"
O        0.75544147      -0.58225301      -0.14917604
O        1.20719129       0.51696640       0.01725066
H       -0.64517434      -0.37644446      -0.28536858
O       -1.62319625      -0.14915892      -0.14707918
4
Properties=species:S:1:pos:R:3 pbc="F F F"
O        0.77960774      -0.58570307      -0.14814940
O        1.21201782       0.51896234       0.01803411
H       -0.67313132      -0.37471751      -0.28542674
O       -1.62423206      -0.14943175      -0.14883111
4
Properties=species:S:1:pos:R:3 pbc="F F F"
O        0.80731287      -0.58994539      -0.14703321
O        1.21808972       0.52169606       0.01903608
H       -0.69635300      -0.37506840      -0.28681897
O       -1.63478742      -0.14757226      -0.14955703
4
Properties=species:S:1:pos:R:3 pbc="F F F"
O        0.83605751      -0.59440326      -0.14593721
O        1.22515002       0.52492796       0.02021097
H       -0.71574975      -0.37710246      -0.28905974
O       -1.65119560      -0.14431224      -0.14958715
4
Properties=species:S:1:pos:R:3 pbc="F F F"
O        0.86442038      -0.59844697      -0.14488618
O        1.23290344       0.52823060       0.02148868
H       -0.73503428      -0.37981031      -0.29138905
O       -1.66802736      -0.14086331      -0.14958659
4
Properties=species:S:1:pos:R:3 pbc="F F F"
O        0.89236674      -0.60168895      -0.14384951
O        1.24140967       0.53133269       0.02285226
H       -0.75457660      -0.38325526      -0.29376902
O       -1.68493763      -0.13727847      -0.14960687
4
Properties=species:S:1:pos:R:3 pbc="F F F"
O        0.91995241      -0.60421560      -0.14281730
O        1.25051563       0.53420638       0.02427647
H       -0.77431576      -0.38729693      -0.29618706
O       -1.70189011      -0.13358384      -0.14964525
4
Properties=species:S:1:pos:R:3 pbc="F F F"
O        0.94688252      -0.60639328      -0.14186977
O        1.26051375       0.53731967       0.02585085
H       -0.79417491      -0.39208759      -0.29866193
O       -1.71895918      -0.12972879      -0.14969229
4
Properties=species:S:1:pos:R:3 pbc="F F F"
O        0.97321750      -0.60696310      -0.14084655
O        1.27101563       0.53943958       0.02739391
H       -0.81434125      -0.39753842      -0.30111121
O       -1.73562971      -0.12582805      -0.14980928
4
Properties=species:S:1:pos:R:3 pbc="F F F"
O        0.99547996      -0.60928176      -0.14034448
O        1.28197111       0.54375402       0.02925292
H       -0.83211317      -0.40333015      -0.30341492
O       -1.75107573      -0.12203211      -0.14986666
4
Properties=species:S:1:pos:R:3 pbc="F F F"
O        1.00128750      -0.60766174      -0.13993516
O        1.28428669       0.54274534       0.02942969
H       -0.83693273      -0.40476357      -0.30390244
O       -1.75437929      -0.12121002      -0.14996522
4
Properties=species:S:1:pos:R:3 pbc="F F F"
O        1.02316293      -0.60899648      -0.13946328
O        1.29625015       0.54679459       0.03141109
H       -0.85545434      -0.41142791      -0.30619697
O       -1.76969656      -0.11726019      -0.15012398
4
Properties=species:S:1:pos:R:3 pbc="F F F"
O        1.02723703      -0.60754128      -0.13916078
O        1.29808650       0.54590979       0.03154300
H       -0.85891982      -0.41264711      -0.30655827
O       -1.77214155      -0.11661140      -0.15019708
4
Properties=species:S:1:pos:R:3 pbc="F F F"
O        1.04878737      -0.60790649      -0.13874101
O        1.31121876       0.54976332       0.03368148
H       -0.87828706      -0.42030083      -0.30884441
O       -1.78745690      -0.11244599      -0.15046919
4
Properties=species:S:1:pos:R:3 pbc="F F F"
O        1.05177537      -0.60663067      -0.13851543
O        1.31275734       0.54902311       0.03379412
H       -0.88090252      -0.42138114      -0.30912549
O       -1.78936802      -0.11190129      -0.15052634
4
Properties=species:S:1:pos:R:3 pbc="F F F"
O        1.07256605      -0.60610569      -0.13819615
O        1.32699192       0.55276372       0.03609967
H       -0.90078138      -0.43002886      -0.31136313
O       -1.80451441      -0.10751916      -0.15091353
4
Properties=species:S:1:pos:R:3 pbc="F F F"
O        1.07474119      -0.60499958      -0.13802924
O        1.32826548       0.55214368       0.03619432
H       -0.90278640      -0.43095822      -0.31157209
O       -1.80595810      -0.10707588      -0.15096613
4
Properties=species:S:1:pos:R:3 pbc="F F F"
O        1.09472357      -0.60357001      -0.13783947
O        1.34370560       0.55581276       0.03869758
H       -0.92322303      -0.44071027      -0.31374583
O       -1.82094397      -0.10242247      -0.15148542
4
Properties=species:S:1:pos:R:3 pbc="F F F"
O        1.09634197      -0.60261990      -0.13771876
O        1.34480025       0.55531163       0.03878540
H       -0.92483195      -0.44152713      -0.31390034
O       -1.82204809      -0.10205459      -0.15153944
4
Properties=species:S:1:pos:R:3 pbc="F F F"
O        1.11502512      -0.60035544      -0.13771165
O        1.36131228       0.55896377       0.04148925
H       -0.94552610      -0.45232580      -0.31593691
O       -1.83654913      -0.09717252      -0.15221384
4
Properties=species:S:1:pos:R:3 pbc="F F F"
O        1.11617046      -0.59954666      -0.13762464
O        1.36219113       0.55854189       0.04155988
H       -0.94675876      -0.45300187      -0.31604271
O       -1.83734066      -0.09688335      -0.15226567
4
Properties=species:S:1:pos:R:3 pbc="F F F"
O        1.13384467      -0.59628926      -0.13781302
O        1.38008938       0.56216319       0.04452400
H       -0.96815037      -0.46511101      -0.31795364
O       -1.85152151      -0.09165291      -0.15313049
4
Properties=species:S:1:pos:R:3 pbc="F F F"
O        1.13477421      -0.59559328      -0.13775844
O        1.38095448       0.56186185       0.04461097
H       -0.96926397      -0.46578267      -0.31803915
O       -1.85220254      -0.09137590      -0.15318652
4
Properties=species:S:1:pos:R:3 pbc="F F F"
O        1.14979352      -0.59190295      -0.13820498
O        1.39887225       0.56548695       0.04765965
H       -0.98955566      -0.47828252      -0.31963476
O       -1.86484794      -0.08619146      -0.15419306
4
Properties=species:S:1:pos:R:3 pbc="F F F"
O        1.15030044      -0.59132281      -0.13815565
O        1.39935477       0.56515467       0.04768901
H       -0.99020614      -0.47868473      -0.31967093
O       -1.86518690      -0.08603713      -0.15423556
