4
Properties=species:S:1:pos:R:3 pbc="F F F"
O        0.64866527      -0.68726595       0.00000009
O        0.81975402       0.60847100      -0.00000005
H       -0.10896142       0.93926939      -0.00000009
O       -1.61499632      -0.19559210       0.00000004
4
Properties=species:S:1:pos:R:3 pbc="F F F"
O        0.65156409      -0.68743394       0.00000008
O        0.81695379       0.60878415      -0.00000005
H       -0.11232657       0.93400508      -0.00000009
O       -1.61172975      -0.19047295       0.00000003
4
Properties=species:S:1:pos:R:3 pbc="F F F"
O        0.65392594      -0.68771484       0.00000008
O        0.81622860       0.60882005      -0.00000005
H       -0.11688211       0.92976997      -0.00000009
O       -1.60881086      -0.18599284       0.00000003
4
Properties=species:S:1:pos:R:3 pbc="F F F"
O        0.65659750      -0.68806337       0.00000008
O        0.81314823       0.60939763      -0.00000005
H       -0.12008230       0.92440337      -0.00000009
O       -1.60520188      -0.18085528       0.00000004
4
Properties=species:S:1:pos:R:3 pbc="F F F"
O        0.66020118      -0.68812064       0.00000008
O        0.81140608       0.60925777      -0.00000005
H       -0.12742497       0.91709192      -0.00000009
O       -1.59972073      -0.17334671       0.00000004
4
Properties=species:S:1:pos:R:3 pbc="F F F"
O        0.66271223      -0.68883642       0.00000008
O        0.80792261       0.61024242      -0.00000005
H       -0.13067926       0.91143325      -0.00000009
O       -1.59549403      -0.16795690       0.00000004
4
Properties=species:S:1:pos:R:3 pbc="F F F"
O        0.66931909      -0.68829960       0.00000008
O        0.80280531       0.61006988      -0.00000006
H       -0.14640591       0.89432561      -0.00000007
O       -1.58125693      -0.15121354       0.00000002
4
Properties=species:S:1:pos:R:3 pbc="F F F"
O        0.67560761      -0.68847279       0.00000008
O        0.79445522       0.61152852      -0.00000005
H       -0.16278219       0.87347360      -0.00000008
O       -1.56281909      -0.13164698       0.00000003
4
Properties=species:S:1:pos:R:3 pbc="F F F"
O        0.68053158      -0.68723134       0.00000008
O        0.78798077       0.61221640      -0.00000005
H       -0.18038961       0.85223382      -0.00000008
O       -1.54366118      -0.11233653       0.00000003
4
Properties=species:S:1:pos:R:3 pbc="F F F"
O        0.68454417      -0.68568278       0.00000008
O        0.78185593       0.61307611      -0.00000006
H       -0.19796595       0.83080107      -0.00000008
O       -1.52397260      -0.09331206       0.00000003
4
Properties=species:S:1:pos:R:3 pbc="F F F"
O        0.68824350      -0.68340597       0.00000008
O        0.77750525       0.61286632      -0.00000004
H       -0.21707095       0.81009099      -0.00000008
O       -1.50421624      -0.07466900       0.00000003
4
Properties=species:S:1:pos:R:3 pbc="F F F"
O        0.69228277      -0.68088978       0.00000008
O        0.77545218       0.61126312      -0.00000004
H       -0.23847932       0.79094568      -0.00000008
O       -1.48479408      -0.05643667       0.00000003
4
Properties=species:S:1:pos:R:3 pbc="F F F"
O        0.69700509      -0.67734508       0.00000007
O        0.77793548       0.60700333      -0.00000004
H       -0.26328688       0.77458377      -0.00000009
O       -1.46719214      -0.03935966       0.00000003
4
Properties=species:S:1:pos:R:3 pbc="F F F"
O        0.70270346      -0.67346067       0.00000000
O        0.78436370       0.60081389       0.00000000
H       -0.29074313       0.76102484       0.00000000
O       -1.45186242      -0.02349570       0.00000000
4
Properties=species:S:1:pos:R:3 pbc="F F F"
O        0.70893624      -0.66863593      -0.00000005
O        0.79383172       0.59299271       0.00000002
H       -0.31953388       0.74930163       0.00000005
O       -1.43877243      -0.00877604      -0.00000002
4
Properties=species:S:1:pos:R:3 pbc="F F F"
O        0.71612925      -0.66383692      -0.00000005
O        0.80476328       0.58447494       0.00000002
H       -0.34895157       0.73880169       0.00000005
O       -1.42747929       0.00544265      -0.00000001
4
Properties=species:S:1:pos:R:3 pbc="F F F"
O        0.72459763      -0.65980659      -0.00000005
O        0.81801150       0.57624580       0.00000003
H       -0.37899304       0.72923598       0.00000005
O       -1.41915443       0.01920717      -0.00000001
4
Properties=species:S:1:pos:R:3 pbc="F F F"
O        0.73319669      -0.65767952      -0.00000005
O        0.83109383       0.56985221       0.00000002
H       -0.40923303       0.71932698       0.00000005
O       -1.41059584       0.03338270      -0.00000001
4
Properties=species:S:1:pos:R:3 pbc="F F F"
O        0.74372053      -0.65547158      -0.00000005
O        0.84037972       0.56044594       0.00000002
H       -0.43965989       0.71271596       0.00000005
O       -1.39997870       0.04719205      -0.00000001
4
Properties=species:S:1:pos:R:3 pbc="F F F"
O        0.75456783      -0.65617033      -0.00000005
O        0.85053846       0.55322637       0.00000002
H       -0.47082927       0.70697920       0.00000005
O       -1.38981536       0.06084712      -0.00000001
4
Properties=species:S:1:pos:R:3 pbc="F F F"
O        0.76546601      -0.65774435      -0.00000005
O        0.86294085       0.54711632       0.00000002
H       -0.50226975       0.70156654       0.00000005
O       -1.38167545       0.07394385      -0.00000001
4
Properties=species:S:1:pos:R:3 pbc="F F F"
O        0.77726126      -0.66044932      -0.00000005
O        0.87818835       0.54174578       0.00000002
H       -0.53364864       0.69787710       0.00000005
O       -1.37733931       0.08570881      -0.00000001
4
Properties=species:S:1:pos:R:3 pbc="F F F"
O        0.79028117      -0.66360594      -0.00000005
O        0.89583451       0.53617461       0.00000002
H       -0.56392826       0.69691035       0.00000005
O       -1.37772576       0.09540334      -0.00000001
4
Properties=species:S:1:pos:R:3 pbc="F F F"
O        0.80436545      -0.66686193      -0.00000005
O        0.91519804       0.53013855       0.00000002
H       -0.59209446       0.69901207       0.00000005
O       -1.38300738       0.10259367      -0.00000001
4
Properties=species:S:1:pos:R:3 pbc="F F F"
O        0.81950173      -0.67063467      -0.00000005
O        0.93601183       0.52401948       0.00000002
H       -0.61769569       0.70447057       0.00000005
O       -1.39335621       0.10702699      -0.00000001
4
Properties=species:S:1:pos:R:3 pbc="F F F"
O        0.83530644      -0.67497889      -0.00000005
O        0.95740909       0.51807996       0.00000002
H       -0.64106073       0.71236994       0.00000005
O       -1.40719313       0.10941136      -0.00000001
4
Properties=species:S:1:pos:R:3 pbc="F F F"
O        0.85145260      -0.67977989      -0.00000005
O        0.97867080       0.51238941       0.00000002
H       -0.66329072       0.72130564       0.00000005
O       -1.42237101       0.11096721      -0.00000001
4
Properties=species:S:1:pos:R:3 pbc="F F F"
O        0.86793621      -0.68480026      -0.00000005
O        0.99958516       0.50670566       0.00000002
H       -0.68540172       0.73043666       0.00000005
O       -1.43765799       0.11254031      -0.00000001
4
Properties=species:S:1:pos:R:3 pbc="F F F"
O        0.88467536      -0.68985418      -0.00000005
O        1.02021903       0.50089493       0.00000002
H       -0.70750823       0.73967176       0.00000005
O       -1.45292450       0.11416984      -0.00000001
4
Properties=species:S:1:pos:R:3 pbc="F F F"
O        0.90170383      -0.69520776      -0.00000005
O        1.04052215       0.49517454       0.00000002
H       -0.72958879       0.74907840       0.00000005
O       -1.46817554       0.11583718      -0.00000001
4
Properties=species:S:1:pos:R:3 pbc="F F F"
O        0.91905527      -0.70053917      -0.00000005
O        1.06043686       0.48921475       0.00000002
H       -0.75172750       0.75862528       0.00000005
O       -1.48330296       0.11758150      -0.00000001
4
Properties=species:S:1:pos:R:3 pbc="F F F"
O        0.93665676      -0.70640158      -0.00000005
O        1.08000042       0.48356318       0.00000002
H       -0.77386729       0.76838869       0.00000005
O       -1.49832824       0.11933207      -0.00000001
4
Properties=species:S:1:pos:R:3 pbc="F F F"
O        0.95454994      -0.71139820      -0.00000005
O        1.09891527       0.47689086       0.00000002
H       -0.79599431       0.77820533       0.00000005
O       -1.51300925       0.12118437      -0.00000001
4
Properties=species:S:1:pos:R:3 pbc="F F F"
O        0.97112848      -0.71876122      -0.00000005
O        1.11636756       0.47319492       0.00000002
H       -0.81645079       0.78767733       0.00000006
O       -1.52658359       0.12277133      -0.00000001
4
Properties=species:S:1:pos:R:3 pbc="F F F"
O        0.97683376      -0.71865645      -0.00000005
O        1.12156673       0.46946859       0.00000002
H       -0.82321006       0.79066182       0.00000006
O       -1.53072877       0.12340840      -0.00000001
4
Properties=species:S:1:pos:R:3 pbc="F F F"
O        0.99275179      -0.72588887      -0.00000005
O        1.13760021       0.46599834       0.00000002
H       -0.84265053       0.79987719       0.00000006
O       -1.54323981       0.12489571      -0.00000001
4
Properties=species:S:1:pos:R:3 pbc="F F F"
O        0.99650492      -0.72547415      -0.00000006
O        1.14078473       0.46320921       0.00000002
H       -0.84701692       0.80183083       0.00000006
O       -1.54581107       0.12531648      -0.00000001
4
Properties=species:S:1:pos:R:3 pbc="F F F"
O        1.01371970      -0.73270632      -0.00000006
O        1.15728917       0.45882695       0.00000002
H       -0.86785467       0.81181010       0.00000006
O       -1.55869254       0.12695163      -0.00000001
4
Properties=species:S:1:pos:R:3 pbc="F F F"
O        1.01679133      -0.73238687      -0.00000006
O        1.15977124       0.45654558       0.00000002
H       -0.87137830       0.81346864       0.00000006
O       -1.56072262       0.12725501      -0.00000001
4
Properties=species:S:1:pos:R:3 pbc="F F F"
O        1.03419612      -0.73959918      -0.00000006
O        1.17567458       0.45192574       0.00000002
H       -0.89231568       0.82372098       0.00000006
O       -1.57309336       0.12883481      -0.00000001
4
Properties=species:S:1:pos:R:3 pbc="F F F"
O        1.03647425      -0.73925185      -0.00000006
O        1.17740215       0.45011714       0.00000002
H       -0.89489702       0.82497307       0.00000006
O       -1.57451771       0.12904401      -0.00000001
4
Properties=species:S:1:pos:R:3 pbc="F F F"
O        1.05476689      -0.74654681      -0.00000006
O        1.19328794       0.44488599       0.00000002
H       -0.91676643       0.83590437       0.00000006
O       -1.58682673       0.13063881      -0.00000001
4
Properties=species:S:1:pos:R:3 pbc="F F F"
O        1.05667992      -0.74630869      -0.00000006
O        1.19466680       0.44340251       0.00000002
H       -0.91892510       0.83698816       0.00000006
O       -1.58795997       0.13080038      -0.00000001
4
Properties=species:S:1:pos:R:3 pbc="F F F"
O        1.07495844      -0.75364353      -0.00000006
O        1.20967440       0.43808992       0.00000002
H       -0.94066677       0.84814038       0.00000006
O       -1.59950441       0.13229558      -0.00000001
4
Properties=species:S:1:pos:R:3 pbc="F F F"
O        1.07632307      -0.75336749      -0.00000006
O        1.21057415       0.43692285       0.00000002
H       -0.94219663       0.84892269       0.00000006
O       -1.60023893       0.13240430      -0.00000001
4
Properties=species:S:1:pos:R:3 pbc="F F F"
O        1.09596959      -0.76089027      -0.00000006
O        1.22562590       0.43074398       0.00000002
H       -0.96547995       0.86117225       0.00000006
O       -1.61165387       0.13385640      -0.00000001
4
Properties=species:S:1:pos:R:3 pbc="F F F"
O        1.09759026      -0.76092310      -0.00000006
O        1.22668161       0.42967317       0.00000002
H       -0.96733077       0.86217212       0.00000006
O       -1.61247944       0.13396017      -0.00000001
4
Properties=species:S:1:pos:R:3 pbc="F F F"
O        1.10545040      -0.76441741      -0.00000006
O        1.23236291       0.42755864       0.00000002
H       -0.97669266       0.86728561       0.00000006
O       -1.61665899       0.13445551      -0.00000001
4
Properties=species:S:1:pos:R:3 pbc="F F F"
O        1.10661337      -0.76433107      -0.00000006
O        1.23307663       0.42668027       0.00000002
H       -0.97801519       0.86800405       0.00000006
O       -1.61721315       0.13452910      -0.00000001
4
Properties=species:S:1:pos:R:3 pbc="F F F"
O        1.12494764      -0.77179420      -0.00000006
O        1.24578739       0.42099175       0.00000002
H       -0.99984256       0.88005402       0.00000006
O       -1.62643082       0.13563078      -0.00000001
4
Properties=species:S:1:pos:R:3 pbc="F F F"
O        1.12557848      -0.77155686      -0.00000006
O        1.24611157       0.42032799       0.00000002
H       -1.00055860       0.88043586       0.00000006
O       -1.62666979       0.13567536      -0.00000001
