5
Properties=species:S:1:pos:R:3 pbc="F F F"
O        1.23811494      -0.60370514      -0.01964889
O        1.31979083       0.58560369       0.09544116
H       -1.01784455      -0.55440442      -0.11988735
H       -1.54366986       0.69015894       0.57017353
O       -1.82615412      -0.06764085       0.05282595
5
Properties=species:S:1:pos:R:3 pbc="F F F"
O        1.23666901      -0.60388560      -0.01959572
O        1.31869042       0.58539296       0.09534162
H       -1.01566957      -0.55407077      -0.12003270
H       -1.54350228       0.69040869       0.57030486
O       -1.82595035      -0.06783306       0.05288634
5
Properties=species:S:1:pos:R:3 pbc="F F F"
O        1.21539536      -0.60623571      -0.01904196
O        1.30349308       0.58280163       0.09414816
H       -0.99492761      -0.54448505      -0.11974268
H       -1.54203679       0.69056717       0.56992589
O       -1.81168680      -0.07263583       0.05361498
5
Properties=species:S:1:pos:R:3 pbc="F F F"
O        1.19201540      -0.60838352      -0.01859505
O        1.28766639       0.58021202       0.09303949
H       -0.97252943      -0.53508824      -0.11914951
H       -1.53988539       0.69067201       0.56956862
O       -1.79702972      -0.07740006       0.05404085
5
Properties=species:S:1:pos:R:3 pbc="F F F"
O        1.18960530      -0.60859064      -0.01855109
O        1.28604793       0.57994156       0.09292779
H       -0.96930207      -0.53461680      -0.11926118
H       -1.53962662       0.69068441       0.56953823
O       -1.79648730      -0.07740631       0.05425065
5
Properties=species:S:1:pos:R:3 pbc="F F F"
O        1.16776702      -0.61019678      -0.01826874
O        1.27217192       0.57777143       0.09207019
H       -0.95032209      -0.52601025      -0.11817616
H       -1.53726105       0.69050318       0.56909505
O       -1.78211856      -0.08205537       0.05418405
5
Properties=species:S:1:pos:R:3 pbc="F F F"
O        1.16459903      -0.61041424      -0.01822878
O        1.27016942       0.57744885       0.09194705
H       -0.94635643      -0.52538339      -0.11824766
H       -1.53692243       0.69033659       0.56894275
O       -1.78125235      -0.08197560       0.05449103
5
Properties=species:S:1:pos:R:3 pbc="F F F"
O        1.14312584      -0.61165723      -0.01804257
O        1.25731001       0.57549384       0.09123091
H       -0.92870125      -0.51730986      -0.11688455
H       -1.53427228       0.69010786       0.56852710
O       -1.76722508      -0.08662239       0.05407350
5
Properties=species:S:1:pos:R:3 pbc="F F F"
O        1.13864322      -0.61189441      -0.01800537
O        1.25464676       0.57507794       0.09108387
H       -0.92360582      -0.51632693      -0.11686299
H       -1.53379769       0.68963734       0.56816700
O       -1.76564923      -0.08648171       0.05452189
5
Properties=species:S:1:pos:R:3 pbc="F F F"
O        1.11762076      -0.61279706      -0.01789149
O        1.24279423       0.57330753       0.09048425
H       -0.90715237      -0.50877124      -0.11529506
H       -1.53089648       0.68951027       0.56786475
O       -1.75212890      -0.09123728       0.05374194
5
Properties=species:S:1:pos:R:3 pbc="F F F"
O        1.11103581      -0.61304725      -0.01785939
O        1.23913251       0.57275106       0.09030194
H       -0.90038478      -0.50719474      -0.11509891
H       -1.53016854       0.68860478       0.56720951
O       -1.74937776      -0.09110163       0.05435124
5
Properties=species:S:1:pos:R:3 pbc="F F F"
O        1.09007582      -0.61361640      -0.01780336
O        1.22810695       0.57110808       0.08979310
H       -0.88473422      -0.50001343      -0.11333595
H       -1.52699782       0.68863531       0.56704668
O       -1.73621349      -0.09610133       0.05320392
5
Properties=species:S:1:pos:R:3 pbc="F F F"
O        1.08048928      -0.61383164      -0.01778490
O        1.22317646       0.57037335       0.08957188
H       -0.87568163      -0.49765146      -0.11286771
H       -1.52585043       0.68717559       0.56602130
O       -1.73189643      -0.09605362       0.05396383
5
Properties=species:S:1:pos:R:3 pbc="F F F"
O        1.05803141      -0.61405030      -0.01777804
O        1.21230281       0.56873467       0.08911614
H       -0.85963428      -0.49033671      -0.11076945
H       -1.52218411       0.68713115       0.56583873
O       -1.71827859      -0.10146658       0.05249702
5
Properties=species:S:1:pos:R:3 pbc="F F F"
O        1.04748335      -0.61428711      -0.01779775
O        1.20736315       0.56816801       0.08893017
H       -0.84987408      -0.48795690      -0.11018375
H       -1.52086970       0.68515931       0.56449586
O       -1.71386549      -0.10107108       0.05345986
5
Properties=species:S:1:pos:R:3 pbc="F F F"
O        1.02556536      -0.61341665      -0.01776805
O        1.19743363       0.56594210       0.08849022
H       -0.83531021      -0.48093215      -0.10788530
H       -1.51705263       0.68538808       0.56452100
O       -1.70039891      -0.10696915       0.05154651
5
Properties=species:S:1:pos:R:3 pbc="F F F"
O        1.01151314      -0.61460623      -0.01792278
O        1.19175351       0.56639801       0.08839573
H       -0.82357718      -0.47778639      -0.10691680
H       -1.51516801       0.68308474       0.56296391
O       -1.69428421      -0.10707790       0.05238433
5
Properties=species:S:1:pos:R:3 pbc="F F F"
O        0.98701215      -0.61230336      -0.01784993
O        1.18155470       0.56314407       0.08789912
H       -0.80723421      -0.47097534      -0.10451335
H       -1.51117399       0.68279443       0.56264495
O       -1.67992142      -0.11264758       0.05072361
5
Properties=species:S:1:pos:R:3 pbc="F F F"
O        0.95947857      -0.61204583      -0.01802884
O        1.17165600       0.56226743       0.08763902
H       -0.78742704      -0.46553951      -0.10267297
H       -1.50785121       0.68085876       0.56121580
O       -1.66561907      -0.11552863       0.05075138
5
Properties=species:S:1:pos:R:3 pbc="F F F"
O        0.93145780      -0.60979375      -0.01807956
O        1.16197731       0.55980667       0.08726576
H       -0.76853159      -0.46130791      -0.10139607
H       -1.50549469       0.68078194       0.56089034
O       -1.64917159      -0.11947473       0.05022393
5
Properties=species:S:1:pos:R:3 pbc="F F F"
O        0.90310046      -0.60802787      -0.01821588
O        1.15323557       0.55824486       0.08700245
H       -0.74897480      -0.45953582      -0.10130088
H       -1.50488167       0.68100883       0.56065919
O       -1.63224232      -0.12167777       0.05075950
5
Properties=species:S:1:pos:R:3 pbc="F F F"
O        0.87485655      -0.60530026      -0.01829194
O        1.14482415       0.55598718       0.08669250
H       -0.72987509      -0.45885687      -0.10171494
H       -1.50512580       0.68214395       0.56096074
O       -1.61444256      -0.12396178       0.05125804
5
Properties=species:S:1:pos:R:3 pbc="F F F"
O        0.84703593      -0.60233134      -0.01838461
O        1.13741813       0.55392527       0.08642659
H       -0.71017084      -0.46107085      -0.10351728
H       -1.50728024       0.68467913       0.56205900
O       -1.59676574      -0.12518999       0.05232070
5
Properties=species:S:1:pos:R:3 pbc="F F F"
O        0.82128576      -0.59974964      -0.01852166
O        1.13119610       0.55241046       0.08622717
H       -0.68674067      -0.46639100      -0.10671674
H       -1.51015112       0.68907444       0.56432370
O       -1.58535284      -0.12533204       0.05359192
5
Properties=species:S:1:pos:R:3 pbc="F F F"
O        0.79897684      -0.59777054      -0.01869481
O        1.12615838       0.55141708       0.08608481
H       -0.65906828      -0.47421262      -0.11098459
H       -1.51290502       0.69461638       0.56735928
O       -1.58292469      -0.12403807       0.05513970
5
Properties=species:S:1:pos:R:3 pbc="F F F"
O        0.77954894      -0.59572308      -0.01884283
O        1.12175094       0.55021551       0.08592641
H       -0.62844953      -0.48349808      -0.11586443
H       -1.51534917       0.70070259       0.57078364
O       -1.58726394      -0.12168473       0.05690159
5
Properties=species:S:1:pos:R:3 pbc="F F F"
O        0.76329617      -0.59414935      -0.01900143
O        1.11807349       0.54926668       0.08579302
H       -0.59673191      -0.49334353      -0.12093394
H       -1.51730541       0.70633179       0.57398089
O       -1.59709509      -0.11809338       0.05906584
5
Properties=species:S:1:pos:R:3 pbc="F F F"
O        0.74955500      -0.59385996      -0.01924915
O        1.11514734       0.54932144       0.08575177
H       -0.56497966      -0.50309271      -0.12591955
H       -1.51875809       0.71100565       0.57662541
O       -1.61072735      -0.11336220       0.06169592
5
Properties=species:S:1:pos:R:3 pbc="F F F"
O        0.73700200      -0.59490558      -0.01960796
O        1.11267089       0.55045214       0.08580870
H       -0.53341233      -0.51252119      -0.13076924
H       -1.51989976       0.71502371       0.57886978
O       -1.62612356      -0.10803686       0.06460310
5
Properties=species:S:1:pos:R:3 pbc="F F F"
O        0.72504063      -0.59726795      -0.02008165
O        1.11045184       0.55263143       0.08596291
H       -0.50203597      -0.52158957      -0.13550553
H       -1.52085309       0.71864119       0.58084959
O       -1.64236618      -0.10240289       0.06767906
5
Properties=species:S:1:pos:R:3 pbc="F F F"
O        0.71353981      -0.60109619      -0.02067675
O        1.10837662       0.55594284       0.08622584
H       -0.47088409      -0.53026935      -0.14016679
H       -1.52168218       0.72200611       0.58263490
O       -1.65911292      -0.09657118       0.07088719
5
Properties=species:S:1:pos:R:3 pbc="F F F"
O        0.70267220      -0.60640666      -0.02137279
O        1.10626579       0.56030074       0.08659571
H       -0.43999037      -0.53855818      -0.14482481
H       -1.52243047       0.72525767       0.58428686
O       -1.67627993      -0.09058134       0.07421942
5
Properties=species:S:1:pos:R:3 pbc="F F F"
O        0.69206640      -0.61215611      -0.02210642
O        1.10397770       0.56486209       0.08700161
H       -0.40904889      -0.54668523      -0.14949673
H       -1.52314578       0.72854815       0.58591109
O       -1.69361219      -0.08455668       0.07759484
5
Properties=species:S:1:pos:R:3 pbc="F F F"
O        0.68410676      -0.62041704      -0.02290953
O        1.10097237       0.57080868       0.08760012
H       -0.37900904      -0.55424410      -0.15445506
H       -1.52373668       0.73204485       0.58746832
O       -1.71209617      -0.07818016       0.08120054
5
Properties=species:S:1:pos:R:3 pbc="F F F"
O        0.68002082      -0.63059506      -0.02401029
O        1.09670685       0.57734882       0.08841328
H       -0.35028389      -0.56114932      -0.15927983
H       -1.52398432       0.73572563       0.58891196
O       -1.73222223      -0.07131785       0.08486926
5
Properties=species:S:1:pos:R:3 pbc="F F F"
O        0.68164221      -0.64200852      -0.02668573
O        1.09110581       0.58387649       0.08975541
H       -0.32400554      -0.56757305      -0.16219633
H       -1.52365557       0.73938769       0.59000728
O       -1.75484990      -0.06367007       0.08802368
5
Properties=species:S:1:pos:R:3 pbc="F F F"
O        0.68791411      -0.65260184      -0.02982422
O        1.08467513       0.58905110       0.09125994
H       -0.30015824      -0.57405206      -0.16452587
H       -1.52326658       0.74301905       0.59088174
O       -1.77892774      -0.05540326       0.09111265
5
Properties=species:S:1:pos:R:3 pbc="F F F"
O        0.70063409      -0.65874012      -0.03526697
O        1.07869449       0.59199993       0.09383118
H       -0.28101530      -0.58463481      -0.16483409
H       -1.52332149       0.74667609       0.59113521
O       -1.80475511      -0.04528809       0.09403890
5
Properties=species:S:1:pos:R:3 pbc="F F F"
O        0.71375587      -0.66215290      -0.04292625
O        1.07425651       0.59573015       0.09769417
H       -0.26494118      -0.59990525      -0.16353589
H       -1.52367469       0.75106387       0.59126685
O       -1.82915984      -0.03472288       0.09640536
5
Properties=species:S:1:pos:R:3 pbc="F F F"
O        0.72807927      -0.66137370      -0.05153470
O        1.06922464       0.59732793       0.10232409
H       -0.25323564      -0.61746696      -0.16151898
H       -1.52475192       0.75510260       0.59040708
O       -1.84907968      -0.02357688       0.09922674
5
Properties=species:S:1:pos:R:3 pbc="F F F"
O        0.73331969      -0.66299669      -0.05726974
O        1.06621729       0.60050010       0.10554316
H       -0.24619255      -0.62740737      -0.15987415
H       -1.52498263       0.75883937       0.59038809
O       -1.85812512      -0.01892241       0.10011686
5
Properties=species:S:1:pos:R:3 pbc="F F F"
O        0.74535954      -0.66183518      -0.06659888
O        1.05873078       0.60147096       0.11087002
H       -0.23702019      -0.64364087      -0.15717438
H       -1.52599012       0.76360633       0.58885728
O       -1.87084335      -0.00958824       0.10295020
5
Properties=species:S:1:pos:R:3 pbc="F F F"
O        0.74804103      -0.66276057      -0.07077503
O        1.05572079       0.60346060       0.11342128
H       -0.23281130      -0.65013166      -0.15594160
H       -1.52585274       0.76662783       0.58862776
O       -1.87486109      -0.00718320       0.10357183
5
Properties=species:S:1:pos:R:3 pbc="F F F"
O        0.75909073      -0.66156529      -0.08176277
O        1.04533999       0.60481452       0.12027217
H       -0.22408294      -0.66760702      -0.15276204
H       -1.52612893       0.77291973       0.58621683
O       -1.88398217       0.00145106       0.10694003
5
Properties=species:S:1:pos:R:3 pbc="F F F"
O        0.76031957      -0.66197741      -0.08481658
O        1.04257232       0.60606355       0.12234375
H       -0.22132815      -0.67203800      -0.15191285
H       -1.52559894       0.77533138       0.58581909
O       -1.88572814       0.00263347       0.10747082
5
Properties=species:S:1:pos:R:3 pbc="F F F"
O        0.76987999      -0.66042296      -0.09686600
O        1.02936453       0.60768928       0.13073099
H       -0.21356471      -0.69006396      -0.14868420
H       -1.52415595       0.78273377       0.58208353
O       -1.89128719       0.01007686       0.11163992
5
Properties=species:S:1:pos:R:3 pbc="F F F"
O        0.77012783      -0.66039122      -0.09896642
O        1.02704831       0.60837496       0.13234983
H       -0.21166021      -0.69301923      -0.14817003
H       -1.52329647       0.78450258       0.58155865
O       -1.89198278       0.01054590       0.11213220
5
Properties=species:S:1:pos:R:3 pbc="F F F"
O        0.77785614      -0.65817548      -0.11156372
O        1.01117532       0.61037817       0.14237915
H       -0.20518424      -0.71116453      -0.14528513
H       -1.51881506       0.79242164       0.57591345
O       -1.89479548       0.01655319       0.11746049
5
Properties=species:S:1:pos:R:3 pbc="F F F"
O        0.77749834      -0.65778365      -0.11286017
O        1.00936802       0.61059002       0.14355754
H       -0.20379444      -0.71300825      -0.14503681
H       -1.51776437       0.79354503       0.57530083
O       -1.89507087       0.01666984       0.11794285
5
Properties=species:S:1:pos:R:3 pbc="F F F"
O        0.78291914      -0.65448950      -0.12549471
O        0.99075481       0.61306134       0.15543842
H       -0.19862719      -0.73085618      -0.14290840
H       -1.50842881       0.80116526       0.56689266
O       -1.89638127       0.02113208       0.12497626
5
Properties=species:S:1:pos:R:3 pbc="F F F"
O        0.78235148      -0.65383497      -0.12631707
O        0.98916705       0.61299787       0.15640539
H       -0.19760693      -0.73211475      -0.14284537
H       -1.50713260       0.80181971       0.56610114
O       -1.89654233       0.02114514       0.12556014
