6
Properties=species:S:1:pos:R:3 pbc="F F F"
H       -1.23144835       1.04990053       0.66052318
O       -1.29068309       0.60307953      -0.19253965
O       -1.26049511      -0.76800708       0.20867418
H       -0.37465230      -1.02671106      -0.07590833
O        1.71519962      -0.42415684      -0.11736771
O        1.65476904       0.75594130       0.07596416
6
Properties=species:S:1:pos:R:3 pbc="F F F"
H       -1.23115515       1.04990356       0.66058939
O       -1.29058300       0.60323774      -0.19257183
O       -1.26013590      -0.76804165       0.20852645
H       -0.37408037      -1.02639861      -0.07582935
O        1.71481731      -0.42476164      -0.11729503
O        1.65382691       0.75610697       0.07592622
6
Properties=species:S:1:pos:R:3 pbc="F F F"
H       -1.22255884       1.04951849       0.66180413
O       -1.28773591       0.60528728      -0.19222821
O       -1.24948418      -0.76689237       0.20284513
H       -0.35814886      -1.01690786      -0.07257034
O        1.70237778      -0.43067942      -0.11382835
O        1.62823983       0.74972026       0.07332348
6
Properties=species:S:1:pos:R:3 pbc="F F F"
H       -1.22218144       1.04950117       0.66185659
O       -1.28761058       0.60536672      -0.19221015
O       -1.24902060      -0.76683142       0.20259375
H       -0.35744658      -1.01649269      -0.07242737
O        1.70186007      -0.43142907      -0.11375493
O        1.62708894       0.74993168       0.07328795
6
Properties=species:S:1:pos:R:3 pbc="F F F"
H       -1.21344811       1.04892149       0.66296836
O       -1.28507459       0.60740593      -0.19203248
O       -1.23848425      -0.76598515       0.19666321
H       -0.34139529      -1.00679210      -0.06857703
O        1.68856906      -0.43701218      -0.11065893
O        1.60252299       0.74350840       0.07098269
6
Properties=species:S:1:pos:R:3 pbc="F F F"
H       -1.21295590       1.04888998       0.66303421
O       -1.28493284       0.60752368      -0.19202881
O       -1.23790037      -0.76594110       0.19633392
H       -0.34048279      -1.00624886      -0.06836184
O        1.68786189      -0.43793617      -0.11057978
O        1.60109983       0.74375884       0.07094814
6
Properties=species:S:1:pos:R:3 pbc="F F F"
H       -1.20418584       1.04816203       0.66398319
O       -1.28264238       0.60932623      -0.19187035
O       -1.22734147      -0.76518446       0.19022886
H       -0.32441389      -0.99629662      -0.06412550
O        1.67379375      -0.44325401      -0.10777847
O        1.57747965       0.73729321       0.06890810
6
Properties=species:S:1:pos:R:3 pbc="F F F"
H       -1.20356279       1.04811154       0.66405366
O       -1.28248110       0.60945225      -0.19186453
O       -1.22660341      -0.76512965       0.18979983
H       -0.32326186      -0.99559334      -0.06382708
O        1.67285143      -0.44438067      -0.10769334
O        1.57574755       0.73758625       0.06887729
6
Properties=species:S:1:pos:R:3 pbc="F F F"
H       -1.19486590       1.04729163       0.66484349
O       -1.28044637       0.61105573      -0.19173081
O       -1.21594812      -0.76448930       0.18366974
H       -0.30721524      -0.98542878      -0.05938410
O        1.65805574      -0.44945697      -0.10513391
O        1.55310971       0.73107408       0.06708141
6
Properties=species:S:1:pos:R:3 pbc="F F F"
H       -1.19408897       1.04721977       0.66491715
O       -1.28026703       0.61119994      -0.19172596
O       -1.21500922      -0.76443430       0.18312874
H       -0.30576765      -0.98452435      -0.05899042
O        1.65680786      -0.45082406      -0.10504052
O        1.55101482       0.73140939       0.06705683
6
Properties=species:S:1:pos:R:3 pbc="F F F"
H       -1.18558953       1.04634883       0.66554427
O       -1.27844180       0.61256869      -0.19159249
O       -1.20418032      -0.76387226       0.17708252
H       -0.28977182      -0.97416638      -0.05449412
O        1.64125023      -0.45568095      -0.10267912
O        1.52942306       0.72484845       0.06548476
6
Properties=species:S:1:pos:R:3 pbc="F F F"
H       -1.18463499       1.04625091       0.66561369
O       -1.27823976       0.61272623      -0.19158147
O       -1.20297152      -0.76381359       0.17640991
H       -0.28795910      -0.97300432      -0.05399184
O        1.63959341      -0.45733916      -0.10257422
O        1.52690180       0.72522633       0.06546974
6
Properties=species:S:1:pos:R:3 pbc="F F F"
H       -1.17643370       1.04537031       0.66608365
O       -1.27657745       0.61384165      -0.19144054
O       -1.19194692      -0.76332894       0.17055665
H       -0.27205145      -0.96247366      -0.04958070
O        1.62330155      -0.46197268      -0.10037514
O        1.50639779       0.71860970       0.06410190
6
Properties=species:S:1:pos:R:3 pbc="F F F"
H       -1.17526883       1.04524159       0.66613994
O       -1.27634452       0.61401256      -0.19141716
O       -1.19037921      -0.76327104       0.16973239
H       -0.26977054      -0.96097428      -0.04895662
O        1.62109332      -0.46398798      -0.10025305
O        1.50335961       0.71902555       0.06410032
6
Properties=species:S:1:pos:R:3 pbc="F F F"
H       -1.16744431       1.04437047       0.66645950
O       -1.27480700       0.61484586      -0.19126617
O       -1.17915181      -0.76284420       0.16416431
H       -0.25399451      -0.95028212      -0.04475002
O        1.60407597      -0.46838476      -0.09818155
O        1.48401148       0.71234114       0.06291974
6
Properties=species:S:1:pos:R:3 pbc="F F F"
H       -1.16602624       1.04420277       0.66649148
O       -1.27453110       0.61502010      -0.19122259
O       -1.17709658      -0.76278534       0.16316227
H       -0.25110311      -0.94832963      -0.04398970
O        1.60110440      -0.47084665      -0.09803280
O        1.48034246       0.71278514       0.06293716
6
Properties=species:S:1:pos:R:3 pbc="F F F"
H       -1.15867789       1.04338442       0.66667120
O       -1.27308769       0.61553741      -0.19105135
O       -1.16567689      -0.76242508       0.15794754
H       -0.23549830      -0.93749777      -0.04008706
O        1.58336593      -0.47496971      -0.09606047
O        1.46226467       0.70601712       0.06192596
6
Properties=species:S:1:pos:R:3 pbc="F F F"
H       -1.15694510       1.04317531       0.66666747
O       -1.27274823       0.61569526      -0.19097811
O       -1.16293661      -0.76236985       0.15672603
H       -0.23175637      -0.93490761      -0.03917073
O        1.57928355      -0.47801410      -0.09586846
O        1.45779258       0.70646737       0.06196962
6
Properties=species:S:1:pos:R:3 pbc="F F F"
H       -1.15016005       1.04251392       0.66672048
O       -1.27138224       0.61585911      -0.19074401
O       -1.15135827      -0.76209864       0.15188282
H       -0.21636818      -0.92402299      -0.03565194
O        1.56086756      -0.48178987      -0.09396935
O        1.44109101       0.69958485       0.06110781
6
Properties=species:S:1:pos:R:3 pbc="F F F"
H       -1.14801044       1.04229102       0.66666653
O       -1.27094847       0.61595313      -0.19061242
O       -1.14759216      -0.76205709       0.15035355
H       -0.21136508      -0.92050067      -0.03454662
O        1.55507510      -0.48562911      -0.09370289
O        1.43553088       0.69998912       0.06118766
6
Properties=species:S:1:pos:R:3 pbc="F F F"
H       -1.14188251       1.04197401       0.66661122
O       -1.26970568       0.61574162      -0.19023485
O       -1.13587889      -0.76190632       0.14583345
H       -0.19621556      -0.90976535      -0.03146377
O        1.53602649      -0.48893754      -0.09185130
O        1.42034598       0.69293997       0.06045107
6
Properties=species:S:1:pos:R:3 pbc="F F F"
H       -1.13912812       1.04185878       0.66647752
O       -1.26915042       0.61565147      -0.18994480
O       -1.13038770      -0.76187585       0.14377020
H       -0.18910439      -0.90479553      -0.03009682
O        1.52729738      -0.49395863      -0.09144241
O        1.41316308       0.69316613       0.06058213
6
Properties=species:S:1:pos:R:3 pbc="F F F"
H       -1.13376454       1.04213155       0.66635165
O       -1.26817337       0.61513776      -0.18934882
O       -1.11857569      -0.76189249       0.13949249
H       -0.17418566      -0.89458623      -0.02747920
O        1.50770395      -0.49658879      -0.08961027
O        1.39968512       0.68584460       0.05993997
6
Properties=species:S:1:pos:R:3 pbc="F F F"
H       -1.12839651       1.04301896       0.66600373
O       -1.26750222       0.61439272      -0.18823466
O       -1.10516688      -0.76183922       0.13471631
H       -0.15732760      -0.88395536      -0.02488145
O        1.48552421      -0.50455772      -0.08823847
O        1.38555881       0.68298700       0.05998035
6
Properties=species:S:1:pos:R:3 pbc="F F F"
H       -1.12337359       1.04467290       0.66571638
O       -1.26758555       0.61364387      -0.18689847
O       -1.09056080      -0.76158108       0.12961278
H       -0.13922135      -0.87399643      -0.02239519
O        1.46113361      -0.50959270      -0.08640908
O        1.37229750       0.67689983       0.05971940
6
Properties=species:S:1:pos:R:3 pbc="F F F"
H       -1.11897107       1.04673692       0.66527291
O       -1.26869522       0.61287877      -0.18515132
O       -1.07544029      -0.76034492       0.12433739
H       -0.12040984      -0.86570209      -0.02008471
O        1.43592107      -0.51650544      -0.08482403
O        1.36028517       0.67298315       0.05979558
6
Properties=species:S:1:pos:R:3 pbc="F F F"
H       -1.11469124       1.04901300       0.66488556
O       -1.26972712       0.61206433      -0.18342718
O       -1.06034405      -0.75940885       0.11912938
H       -0.10144740      -0.85726229      -0.01789318
O        1.41035329      -0.52229716      -0.08310001
O        1.34854634       0.66793735       0.05975125
6
Properties=species:S:1:pos:R:3 pbc="F F F"
H       -1.11137798       1.05139476       0.66442858
O       -1.27255353       0.61188884      -0.18161257
O       -1.04626634      -0.75690223       0.11427765
H       -0.08039411      -0.85195058      -0.01616077
O        1.38408973      -0.52828750      -0.08147405
O        1.33919206       0.66390310       0.05988697
6
Properties=species:S:1:pos:R:3 pbc="F F F"
H       -1.10865908       1.05341173       0.66393154
O       -1.27586641       0.61161835      -0.17989406
O       -1.03844344      -0.75308747       0.11059024
H       -0.05525145      -0.84848484      -0.01537680
O        1.35934193      -0.53443841      -0.08006648
O        1.33156828       0.66102703       0.06016137
6
Properties=species:S:1:pos:R:3 pbc="F F F"
H       -1.10644128       1.05496379       0.66342612
O       -1.27911420       0.61073742      -0.17830479
O       -1.03865817      -0.74805698       0.10827200
H       -0.02605096      -0.84633414      -0.01565839
O        1.33739180      -0.54047931      -0.07893766
O        1.32556265       0.65921561       0.06054853
6
Properties=species:S:1:pos:R:3 pbc="F F F"
H       -1.10458719       1.05610177       0.66287104
O       -1.28209550       0.60919786      -0.17677567
O       -1.04545496      -0.74220904       0.10703333
H        0.00574409      -0.84492542      -0.01673910
O        1.31828207      -0.54619570      -0.07805112
O        1.32080131       0.65807692       0.06100735
6
Properties=species:S:1:pos:R:3 pbc="F F F"
H       -1.10299825       1.05690360       0.66227258
O       -1.28477479       0.60701613      -0.17529520
O       -1.05688822      -0.73588803       0.10655460
H        0.03830705      -0.84388084      -0.01832125
O        1.30198743      -0.55197782      -0.07744423
O        1.31705661       0.65787335       0.06157932
6
Properties=species:S:1:pos:R:3 pbc="F F F"
H       -1.10156043       1.05747158       0.66151375
O       -1.28735742       0.60480677      -0.17376259
O       -1.07038035      -0.72962935       0.10647280
H        0.07095895      -0.84294528      -0.02011323
O        1.28713581      -0.55812497      -0.07702677
O        1.31389327       0.65846763       0.06226186
6
Properties=species:S:1:pos:R:3 pbc="F F F"
H       -1.10018172       1.05798458       0.66086000
O       -1.28992813       0.60248017      -0.17242123
O       -1.08476082      -0.72346498       0.10661623
H        0.10335383      -0.84203520      -0.02200590
O        1.27299656      -0.56556460      -0.07684357
O        1.31121012       0.66064642       0.06314027
6
Properties=species:S:1:pos:R:3 pbc="F F F"
H       -1.09867652       1.05850440       0.66036769
O       -1.29297269       0.59919111      -0.17126791
O       -1.10060595      -0.71667311       0.10683684
H        0.13508687      -0.84104504      -0.02390108
O        1.26063480      -0.57418177      -0.07702165
O        1.30922332       0.66425079       0.06433194
6
Properties=species:S:1:pos:R:3 pbc="F F F"
H       -1.09667623       1.05902117       0.65954838
O       -1.29785694       0.59594733      -0.17007177
O       -1.11915315      -0.70984463       0.10722907
H        0.16619032      -0.84021541      -0.02564165
O        1.25231174      -0.58276759      -0.07768631
O        1.30787409       0.66790552       0.06596809
6
Properties=species:S:1:pos:R:3 pbc="F F F"
H       -1.09410810       1.05966835       0.65840497
O       -1.30451564       0.59294616      -0.16877087
O       -1.13893872      -0.70305304       0.10759455
H        0.19670414      -0.83999442      -0.02722099
O        1.24642762      -0.59109870      -0.07865485
O        1.30712051       0.67157809       0.06799286
6
Properties=species:S:1:pos:R:3 pbc="F F F"
H       -1.09111943       1.06030464       0.65679771
O       -1.31273550       0.59134997      -0.16740741
O       -1.16098535      -0.69723272       0.10828887
H        0.22599582      -0.84045558      -0.02862608
O        1.24515119      -0.59802914      -0.07992818
O        1.30638307       0.67410936       0.07022052
6
Properties=species:S:1:pos:R:3 pbc="F F F"
H       -1.08700010       1.06121708       0.65459407
O       -1.32429989       0.59127615      -0.16603729
O       -1.18526630      -0.69242605       0.10913227
H        0.25226393      -0.84291753      -0.02965577
O        1.25052365      -0.60364282      -0.08180434
O        1.30646852       0.67653969       0.07311647
6
Properties=species:S:1:pos:R:3 pbc="F F F"
H       -1.08153277       1.06213275       0.65092552
O       -1.33923160       0.59284595      -0.16376128
O       -1.20934169      -0.68879085       0.10971485
H        0.27571165      -0.84721278      -0.03024010
O        1.25944547      -0.60604364      -0.08385778
O        1.30763875       0.67711510       0.07656423
6
Properties=species:S:1:pos:R:3 pbc="F F F"
H       -1.07434940       1.06340789       0.64686887
O       -1.35696374       0.59418922      -0.16147330
O       -1.23148174      -0.68535267       0.10971540
H        0.29513188      -0.85267833      -0.03026115
O        1.27064805      -0.60945265      -0.08648402
O        1.30970476       0.67993307       0.08097961
6
Properties=species:S:1:pos:R:3 pbc="F F F"
H       -1.06622288       1.06394274       0.64065497
O       -1.37568347       0.59690522      -0.15733782
O       -1.25021062      -0.68311697       0.10908214
H        0.31294907      -0.85784521      -0.02980069
O        1.27997515      -0.60825921      -0.08856611
O        1.31188255       0.67841995       0.08531294
6
Properties=species:S:1:pos:R:3 pbc="F F F"
H       -1.05652924       1.06489084       0.63497383
O       -1.39533730       0.59808754      -0.15380472
O       -1.26607024      -0.68045786       0.10774537
H        0.32613469      -0.86293188      -0.02872388
O        1.29062842      -0.61144772      -0.09146743
O        1.31386348       0.68190561       0.09062227
6
Properties=species:S:1:pos:R:3 pbc="F F F"
H       -1.04640020       1.06485365       0.62703135
O       -1.41461663       0.60071683      -0.14810666
O       -1.27911401      -0.67895605       0.10582473
H        0.34011659      -0.86696662      -0.02738077
O        1.29731411      -0.60902874      -0.09333826
O        1.31538996       0.67942745       0.09531504
6
Properties=species:S:1:pos:R:3 pbc="F F F"
H       -1.03414315       1.06515178       0.61892946
O       -1.43565523       0.60210074      -0.14234200
O       -1.29113526      -0.67689893       0.10311517
H        0.34973685      -0.87149328      -0.02532459
O        1.30753667      -0.61132075      -0.09635384
O        1.31634993       0.68250696       0.10132122
6
Properties=species:S:1:pos:R:3 pbc="F F F"
H       -1.02159338       1.06464997       0.60894277
O       -1.45580400       0.60434545      -0.13458883
O       -1.30080842      -0.67558039       0.09977377
H        0.36211380      -0.87477540      -0.02329933
O        1.31191300      -0.60882081      -0.09805722
O        1.31686881       0.68022770       0.10657426
6
Properties=species:S:1:pos:R:3 pbc="F F F"
H       -1.00727970       1.06426388       0.59822563
O       -1.47695110       0.60595164      -0.12609910
O       -1.30970265      -0.67412897       0.09569515
H        0.36875925      -0.87883349      -0.02056795
O        1.32146210      -0.60990869      -0.10086580
O        1.31640192       0.68270214       0.11295750
6
Properties=species:S:1:pos:R:3 pbc="F F F"
H       -0.99275420       1.06337608       0.58608213
O       -1.49694821       0.60769912      -0.11592984
O       -1.31682654      -0.67289929       0.09100365
H        0.37960115      -0.88157827      -0.01824221
O        1.32402919      -0.60762078      -0.10218829
O        1.31558841       0.68106967       0.11862000
6
Properties=species:S:1:pos:R:3 pbc="F F F"
H       -0.97693545       1.06245461       0.57279649
O       -1.51719585       0.60926872      -0.10455288
O       -1.32343415      -0.67182932       0.08570821
H        0.38435980      -0.88527043      -0.01537776
O        1.33232034      -0.60777468      -0.10444069
O        1.31357512       0.68319763       0.12521207
6
Properties=species:S:1:pos:R:3 pbc="F F F"
H       -0.96135202       1.06119750       0.55856040
O       -1.53566781       0.61064318      -0.09189422
O       -1.32871666      -0.67075707       0.08002245
H        0.39356001      -0.88765016      -0.01331136
O        1.33359385      -0.60533738      -0.10501877
O        1.31127244       0.68195046       0.13098693
6
Properties=species:S:1:pos:R:3 pbc="F F F"
H       -0.94492943       1.05988618       0.54325667
O       -1.55367802       0.61191825      -0.07805677
O       -1.33371213      -0.66988803       0.07394958
H        0.39673790      -0.89108614      -0.01095449
O        1.34059830      -0.60501680      -0.10641195
O        1.30767319       0.68423307       0.13756240
6
Properties=species:S:1:pos:R:3 pbc="F F F"
H       -0.92909987       1.05831573       0.52731260
O       -1.56952790       0.61293800      -0.06327664
O       -1.33782077      -0.66896635       0.06773738
H        0.40449026      -0.89321501      -0.00969375
O        1.34080032      -0.60224291      -0.10593997
O        1.30384778       0.68321707       0.14320582
6
Properties=species:S:1:pos:R:3 pbc="F F F"
H       -0.91268966       1.05669611       0.51046016
O       -1.58449724       0.61384848      -0.04750716
O       -1.34187846      -0.66823365       0.06133860
H        0.40635883      -0.89651721      -0.00832834
O        1.34674170      -0.60154248      -0.10624538
O        1.29865463       0.68579528       0.14962756
6
Properties=species:S:1:pos:R:3 pbc="F F F"
H       -0.89712879       1.05483025       0.49330703
O       -1.59705700       0.61451998      -0.03121663
O       -1.34534019      -0.66744231       0.05505125
H        0.41286606      -0.89848943      -0.00823923
O        1.34604662      -0.59844092      -0.10456288
O        1.29330312       0.68506896       0.15500590
6
Properties=species:S:1:pos:R:3 pbc="F F F"
H       -0.88107651       1.05288274       0.47542082
O       -1.60850125       0.61509173      -0.01416438
O       -1.34892078      -0.66682587       0.04874181
H        0.41362796      -0.90171922      -0.00816552
O        1.35106447      -0.59737197      -0.10363580
O        1.28649591       0.68798912       0.16114850
6
Properties=species:S:1:pos:R:3 pbc="F F F"
H       -0.86610286       1.05067046       0.45768653
O       -1.61739807       0.61546928       0.00287562
O       -1.35206365      -0.66615413       0.04276534
H        0.41901333      -0.90357535      -0.00941110
O        1.34957871      -0.59398790      -0.10071057
O        1.27966235       0.68762417       0.16613962
6
Properties=species:S:1:pos:R:3 pbc="F F F"
H       -0.85058209       1.04830667       0.43938694
O       -1.62509458       0.61577496       0.02045247
O       -1.35542356      -0.66565651       0.03687618
H        0.41881329      -0.90672741      -0.01073827
O        1.35370940      -0.59254311      -0.09851119
O        1.27126736       0.69089193       0.17187931
6
Properties=species:S:1:pos:R:3 pbc="F F F"
H       -0.83633431       1.04566174       0.42176117
O       -1.63025448       0.61593145       0.03742876
O       -1.35840304      -0.66511300       0.03150263
H        0.42315094      -0.90845000      -0.01328243
O        1.35147840      -0.58892250      -0.09443745
O        1.26305230       0.69093883       0.17637276
6
Properties=species:S:1:pos:R:3 pbc="F F F"
H       -0.82140977       1.04278891       0.40372595
O       -1.63424079       0.61604235       0.05473929
O       -1.36163698      -0.66476636       0.02627580
H        0.42210191      -0.91145937      -0.01594393
O        1.35467095      -0.58708887      -0.09103403
O        1.25320449       0.69452988       0.18158235
6
Properties=species:S:1:pos:R:3 pbc="F F F"
H       -0.80792517       1.03962329       0.38687585
O       -1.63591725       0.61604268       0.07089362
O       -1.36447606      -0.66437446       0.02168550
H        0.42543081      -0.91298560      -0.01959132
O        1.35172198      -0.58327932      -0.08600666
O        1.24385550       0.69501994       0.18548845
6
Properties=species:S:1:pos:R:3 pbc="F F F"
H       -0.79357425       1.03612539       0.36976277
O       -1.63652305       0.61602108       0.08720632
O       -1.36756548      -0.66421491       0.01726905
H        0.42363781      -0.91570464      -0.02337034
O        1.35387193      -0.58105569      -0.08156697
O        1.23284285       0.69887529       0.19004460
6
Properties=species:S:1:pos:R:3 pbc="F F F"
H       -0.78550917       1.03377771       0.36007538
O       -1.63574704       0.61591952       0.09639764
O       -1.36921709      -0.66406922       0.01493089
H        0.42570290      -0.91626328      -0.02616945
O        1.35089732      -0.57846555      -0.07790287
O        1.22656289       0.69914735       0.19201385
6
Properties=species:S:1:pos:R:3 pbc="F F F"
H       -0.77029956       1.02925333       0.34255198
O       -1.63369889       0.61582028       0.11295038
O       -1.37243383      -0.66405412       0.01084444
H        0.42357425      -0.91877701      -0.03110726
O        1.35169356      -0.57542347      -0.07216644
O        1.21385427       0.70322752       0.19627235
6
Properties=species:S:1:pos:R:3 pbc="F F F"
H       -0.76409004       1.02708456       0.33553538
O       -1.63197219       0.61570491       0.11953154
O       -1.37367604      -0.66404594       0.00932656
H        0.42502217      -0.91895692      -0.03355902
O        1.34873284      -0.57325987      -0.06901551
O        1.20867308       0.70351979       0.19752649
6
Properties=species:S:1:pos:R:3 pbc="F F F"
H       -0.74846547       1.02162267       0.31879233
O       -1.62752133       0.61549866       0.13517230
O       -1.37686627      -0.66427239       0.00579384
H        0.42232472      -0.92100206      -0.03927910
O        1.34823752      -0.56968398      -0.06237020
O        1.19498064       0.70788362       0.20123628
6
Properties=species:S:1:pos:R:3 pbc="F F F"
H       -0.74375451       1.01966800       0.31393327
O       -1.62549104       0.61537379       0.13966714
O       -1.37776361      -0.66434457       0.00484973
H        0.42328820      -0.92088009      -0.04125671
O        1.34546763      -0.56794166      -0.05981298
O        1.19094314       0.70817105       0.20196499
6
Properties=species:S:1:pos:R:3 pbc="F F F"
H       -0.72751794       1.01311521       0.29823526
O       -1.61890367       0.61502070       0.15415228
O       -1.38089498      -0.66489040       0.00182548
H        0.41988320      -0.92222559      -0.04755078
O        1.34354049      -0.56384759      -0.05236404
O        1.17658272       0.71287419       0.20504725
6
Properties=species:S:1:pos:R:3 pbc="F F F"
H       -0.72411118       1.01145258       0.29512665
O       -1.61699211       0.61488359       0.15698736
O       -1.38149983      -0.66501706       0.00126851
H        0.42045380      -0.92187912      -0.04899166
O        1.34111884      -0.56252747      -0.05043834
O        1.17372029       0.71313401       0.20539293
6
Properties=species:S:1:pos:R:3 pbc="F F F"
H       -0.70702002       1.00358513       0.28070068
O       -1.60845914       0.61426847       0.17014629
O       -1.38454353      -0.66601954      -0.00135918
H        0.41605380      -0.92215982      -0.05564383
O        1.33753315      -0.55792136      -0.04223377
O        1.15912555       0.71829364       0.20773526
6
Properties=species:S:1:pos:R:3 pbc="F F F"
H       -0.70475280       1.00227780       0.27894502
O       -1.60692283       0.61411712       0.17173049
O       -1.38490597      -0.66617595      -0.00167653
H        0.41630111      -0.92167250      -0.05654976
O        1.33559381      -0.55701095      -0.04092421
O        1.15737651       0.71851100       0.20782043
6
Properties=species:S:1:pos:R:3 pbc="F F F"
H       -0.68655691       0.99274647       0.26615964
O       -1.59653892       0.61299049       0.18332478
O       -1.38778792      -0.66789238      -0.00411626
H        0.41029497      -0.92021165      -0.06320056
O        1.32998349      -0.55192084      -0.03201179
O        1.14329510       0.72433443       0.20918964
