4
Properties=species:S:1:pos:R:3 pbc="F F F"
O        0.52337101      -0.23892422       0.34028954
H       -0.07247997       0.10122752       1.01783311
H        2.31600020       0.10323325       0.75117146
O        1.68683754      -0.52575586       1.12310520
4
Properties=species:S:1:pos:R:3 pbc="F F F"
O        0.52373786      -0.23850978       0.34038983
H       -0.07267124       0.10076935       1.01785333
H        2.31616736       0.10285758       0.75089395
O        1.68649480      -0.52533646       1.12326221
4
Properties=species:S:1:pos:R:3 pbc="F F F"
O        0.52509429      -0.23201839       0.33991715
H       -0.07762897       0.09452010       1.01804861
H        2.32071940       0.09754776       0.74707194
O        1.68554405      -0.52026878       1.12736161
4
Properties=species:S:1:pos:R:3 pbc="F F F"
O        0.52512812      -0.23173189       0.33961938
H       -0.07798360       0.09428849       1.01821234
H        2.32106121       0.09742983       0.74679878
O        1.68552304      -0.52020574       1.12776880
4
Properties=species:S:1:pos:R:3 pbc="F F F"
O        0.52928859      -0.21513613       0.33924502
H       -0.08895525       0.07805742       1.01832122
H        2.33100569       0.08350870       0.73720208
O        1.68238974      -0.50664929       1.13763099
4
Properties=species:S:1:pos:R:3 pbc="F F F"
O        0.52893632      -0.21407158       0.33867774
H       -0.08961381       0.07718152       1.01840872
H        2.33161052       0.08280011       0.73661599
O        1.68279575      -0.50612936       1.13869686
4
Properties=species:S:1:pos:R:3 pbc="F F F"
O        0.53113912      -0.20772508       0.33923316
H       -0.09370316       0.07078254       1.01827363
H        2.33529086       0.07722762       0.73298160
O        1.68100195      -0.50050438       1.14191091
4
Properties=species:S:1:pos:R:3 pbc="F F F"
O        0.53101345      -0.20577928       0.33860301
H       -0.09493679       0.06905030       1.01838838
H        2.33641637       0.07579834       0.73187108
O        1.68123574      -0.49928866       1.14353683
4
Properties=species:S:1:pos:R:3 pbc="F F F"
O        0.53256144      -0.20242616       0.33916182
H       -0.09699791       0.06557213       1.01829368
H        2.33826133       0.07276593       0.72992344
O        1.67990392      -0.49613120       1.14502037
4
Properties=species:S:1:pos:R:3 pbc="F F F"
O        0.53246990      -0.19999169       0.33871248
H       -0.09814535       0.06333710       1.01823793
H        2.33928391       0.07083070       0.72867813
O        1.68012032      -0.49439541       1.14677076
4
Properties=species:S:1:pos:R:3 pbc="F F F"
O        0.53185140      -0.19785713       0.34155989
H       -0.10631080       0.06112389       1.01706490
H        2.34692231       0.06793458       0.72795747
O        1.68126586      -0.49142063       1.14581704
4
Properties=species:S:1:pos:R:3 pbc="F F F"
O        0.52901518      -0.19705919       0.34178484
H       -0.11221340       0.06084793       1.01651475
H        2.35249719       0.06710399       0.72792524
O        1.68442981      -0.49111203       1.14617448
4
Properties=species:S:1:pos:R:3 pbc="F F F"
O        0.51654977      -0.19447704       0.33257795
H       -0.11838930       0.06161251       1.01752683
H        2.35842114       0.06798166       0.72722275
O        1.69714716      -0.49533642       1.15507177
4
Properties=species:S:1:pos:R:3 pbc="F F F"
O        0.49525585      -0.18973749       0.31609433
H       -0.12303529       0.06260894       1.01897812
H        2.36287874       0.06935930       0.72638288
O        1.71862948      -0.50245005       1.17094398
4
Properties=species:S:1:pos:R:3 pbc="F F F"
O        0.47352112      -0.18470408       0.29958227
H       -0.12591369       0.06336621       1.02006060
H        2.36561382       0.07042014       0.72579185
O        1.74050752      -0.50930156       1.18696459
4
Properties=species:S:1:pos:R:3 pbc="F F F"
O        0.45155077      -0.17947104       0.28321761
H       -0.12779741       0.06393525       1.02083998
H        2.36736928       0.07120542       0.72538470
O        1.76260613      -0.51588893       1.20295702
4
Properties=species:S:1:pos:R:3 pbc="F F F"
O        0.42941184      -0.17407676       0.26702462
H       -0.12898365       0.06434597       1.02135947
H        2.36843250       0.07174951       0.72512848
O        1.78486809      -0.52223801       1.21888673
4
Properties=species:S:1:pos:R:3 pbc="F F F"
O        0.40713969      -0.16854372       0.25100484
H       -0.12962288       0.06461782       1.02164674
H        2.36894978       0.07207647       0.72500477
O        1.80726219      -0.52836987       1.23474296
4
Properties=species:S:1:pos:R:3 pbc="F F F"
O        0.38477950      -0.16289790       0.23512042
H       -0.12983119       0.06477595       1.02175458
H        2.36903689       0.07223265       0.72497822
O        1.82974357      -0.53432999       1.25054609
4
Properties=species:S:1:pos:R:3 pbc="F F F"
O        0.36244407      -0.15718689       0.21921553
H       -0.12973846       0.06486937       1.02184167
H        2.36882821       0.07234737       0.72493630
O        1.85219495      -0.54024913       1.26640581
4
Properties=species:S:1:pos:R:3 pbc="F F F"
O        0.34013707      -0.15128511       0.20339070
H       -0.12884011       0.06477336       1.02176559
H        2.36778124       0.07225801       0.72493586
O        1.87465058      -0.54596555       1.28230716
4
Properties=species:S:1:pos:R:3 pbc="F F F"
O        0.31786783      -0.14517720       0.18769006
H       -0.12707744       0.06446672       1.02149274
H        2.36583728       0.07193115       0.72499435
O        1.89710111      -0.55143996       1.29822215
4
Properties=species:S:1:pos:R:3 pbc="F F F"
O        0.29563888      -0.13884790       0.17218297
H       -0.12439968       0.06392742       1.02096873
H        2.36294412       0.07131929       0.72514637
O        1.91954547      -0.55661811       1.31410124
4
Properties=species:S:1:pos:R:3 pbc="F F F"
O        0.27349375      -0.13232972       0.15681929
H       -0.12091125       0.06318246       1.02026490
H        2.35921083       0.07048044       0.72534523
O        1.94193545      -0.56155248       1.32996989
4
Properties=species:S:1:pos:R:3 pbc="F F F"
O        0.25150558      -0.12562247       0.14156732
H       -0.11657164       0.06221852       1.01944323
H        2.35459693       0.06944290       0.72553125
O        1.96419790      -0.56625824       1.34585751
4
Properties=species:S:1:pos:R:3 pbc="F F F"
O        0.22933696      -0.11850825       0.12795182
H       -0.11095829       0.06076954       1.01711668
H        2.34863721       0.06718810       0.72673040
O        1.98671289      -0.56966869       1.36060040
4
Properties=species:S:1:pos:R:3 pbc="F F F"
O        0.20857596      -0.11177709       0.11249654
H       -0.10554206       0.05954788       1.01699088
H        2.34294200       0.06641988       0.72620153
O        2.00775287      -0.57440997       1.37671036
4
Properties=species:S:1:pos:R:3 pbc="F F F"
O        0.18747018      -0.10442109       0.10152614
H       -0.09856503       0.05748772       1.01292247
H        2.33555769       0.06270948       0.72854920
O        2.02926593      -0.57599540       1.38940150
4
Properties=species:S:1:pos:R:3 pbc="F F F"
O        0.16863398      -0.09786782       0.08724040
H       -0.09250515       0.05593127       1.01295708
H        2.32920674       0.06180067       0.72770528
O        2.04839320      -0.58008341       1.40449654
4
Properties=species:S:1:pos:R:3 pbc="F F F"
O        0.14929056      -0.09054980       0.07817902
H       -0.08506794       0.05345897       1.00815033
H        2.32132906       0.05734206       0.73044705
O        2.06817710      -0.58047052       1.41562290
4
Properties=species:S:1:pos:R:3 pbc="F F F"
O        0.13232895      -0.08407311       0.06585589
H       -0.07866140       0.05143208       1.00770206
H        2.31458841       0.05578618       0.72974406
O        2.08547282      -0.58336444       1.42909730
4
Properties=species:S:1:pos:R:3 pbc="F F F"
O        0.11495872      -0.07684139       0.05822208
H       -0.07132598       0.04857737       1.00273495
H        2.30679486       0.05091719       0.73240664
O        2.10330117      -0.58287245       1.43903563
4
Properties=species:S:1:pos:R:3 pbc="F F F"
O        0.09767564      -0.06933282       0.04705073
H       -0.06396783       0.04553954       1.00100748
H        2.29901033       0.04783315       0.73222707
O        2.12101064      -0.58425915       1.45211403
4
Properties=species:S:1:pos:R:3 pbc="F F F"
O        0.08857589      -0.06512259       0.04363511
H       -0.05984749       0.04361409       0.99782451
H        2.29461903       0.04460225       0.73387554
O        2.13038135      -0.58331304       1.45706415
4
Properties=species:S:1:pos:R:3 pbc="F F F"
O        0.07251237      -0.05723397       0.03394782
H       -0.05255686       0.03985697       0.99555890
H        2.28687447       0.04060714       0.73373693
O        2.14689880      -0.58344943       1.46915566
4
Properties=species:S:1:pos:R:3 pbc="F F F"
O        0.06559008      -0.05364574       0.03140332
H       -0.04929944       0.03802016       0.99303188
H        2.28339290       0.03778392       0.73487531
O        2.15404524      -0.58237762       1.47308879
4
Properties=species:S:1:pos:R:3 pbc="F F F"
O        0.05778109      -0.04947182       0.02660812
H       -0.04567380       0.03586798       0.99197074
H        2.27953416       0.03560654       0.73458375
O        2.16208733      -0.58222199       1.47923670
4
Properties=species:S:1:pos:R:3 pbc="F F F"
O        0.05254698      -0.04654293       0.02475686
H       -0.04315866       0.03426864       0.98996938
H        2.27683758       0.03324785       0.73540085
O        2.16750288      -0.58119285       1.48227221
4
Properties=species:S:1:pos:R:3 pbc="F F F"
O        0.04705492      -0.04339776       0.02140851
H       -0.04055766       0.03254829       0.98918935
H        2.27405704       0.03152920       0.73510503
O        2.17317448      -0.58089902       1.48669642
4
Properties=species:S:1:pos:R:3 pbc="F F F"
O        0.04289480      -0.04092076       0.01996548
H       -0.03852851       0.03113280       0.98755613
H        2.27187082       0.02951245       0.73570657
O        2.17749166      -0.57994377       1.48917113
4
Properties=species:S:1:pos:R:3 pbc="F F F"
O        0.03902398      -0.03858007       0.01759886
H       -0.03666887       0.02979894       0.98700546
H        2.26987219       0.02820206       0.73542846
O        2.18150148      -0.57964021       1.49236653
4
Properties=species:S:1:pos:R:3 pbc="F F F"
O        0.03556827      -0.03642049       0.01640635
H       -0.03496510       0.02852495       0.98563159
H        2.26802701       0.02643728       0.73588508
O        2.18509860      -0.57876102       1.49447628
4
Properties=species:S:1:pos:R:3 pbc="F F F"
O        0.03280755      -0.03468033       0.01470210
H       -0.03362494       0.02750470       0.98524990
H        2.26657958       0.02545313       0.73563746
O        2.18796659      -0.57849679       1.49680985
4
Properties=species:S:1:pos:R:3 pbc="F F F"
O        0.02983114      -0.03275242       0.01367030
H       -0.03214618       0.02634246       0.98406264
H        2.26497094       0.02387845       0.73599568
O        2.19107288      -0.57768777       1.49867068
4
Properties=species:S:1:pos:R:3 pbc="F F F"
O        0.02783192      -0.03145405       0.01241878
H       -0.03116824       0.02556656       0.98379999
H        2.26391049       0.02314364       0.73578333
O        2.19315460      -0.57747544       1.50039720
4
Properties=species:S:1:pos:R:3 pbc="F F F"
O        0.02519531      -0.02970519       0.01149525
H       -0.02985096       0.02449804       0.98275099
H        2.26247272       0.02171911       0.73607505
O        2.19591171      -0.57673124       1.50207801
4
Properties=species:S:1:pos:R:3 pbc="F F F"
O        0.02372510      -0.02873271       0.01055992
H       -0.02912757       0.02391042       0.98257047
H        2.26168610       0.02117225       0.73589843
O        2.19744515      -0.57656924       1.50337049
4
Properties=species:S:1:pos:R:3 pbc="F F F"
O        0.02133956      -0.02713359       0.00971332
H       -0.02793056       0.02292827       0.98162711
H        2.26037709       0.01987475       0.73614790
O        2.19994269      -0.57588871       1.50491097
4
Properties=species:S:1:pos:R:3 pbc="F F F"
O        0.02024280      -0.02640443       0.00900408
H       -0.02738833       0.02248650       0.98150254
H        2.25978669       0.01946993       0.73600573
O        2.20108762      -0.57577127       1.50588695
4
Properties=species:S:1:pos:R:3 pbc="F F F"
O        0.00331535      -0.01170751       0.00159901
H       -0.01861055       0.01224099       0.97600941
H        2.24996025       0.00832219       0.73488771
O        2.21906394      -0.56907467       1.51990271
4
Properties=species:S:1:pos:R:3 pbc="F F F"
O       -0.01355197       0.00300094      -0.00532043
H       -0.00985272       0.00196655       0.97008159
H        2.24014846      -0.00310861       0.73412104
O        2.23698544      -0.56207762       1.53351617
4
Properties=species:S:1:pos:R:3 pbc="F F F"
O       -0.01389960       0.00344027      -0.00531833
H       -0.00966698       0.00162050       0.96981186
H        2.23992859      -0.00354219       0.73415334
O        2.23736721      -0.56173732       1.53375150
4
Properties=species:S:1:pos:R:3 pbc="F F F"
O       -0.01595479       0.00601612      -0.00625098
H       -0.00857267      -0.00040451       0.96916418
H        2.23864097      -0.00552534       0.73355180
O        2.23961570      -0.56030501       1.53593335
4
Properties=species:S:1:pos:R:3 pbc="F F F"
O       -0.01637679       0.00653791      -0.00625810
H       -0.00834502      -0.00081292       0.96884550
H        2.23837251      -0.00603711       0.73359036
O        2.24007851      -0.55990661       1.53622060
4
Properties=species:S:1:pos:R:3 pbc="F F F"
O       -0.01827318       0.00887535      -0.00712618
H       -0.00732419      -0.00264208       0.96825329
H        2.23717460      -0.00783171       0.73305223
O        2.24215198      -0.55862030       1.53821902
4
Properties=species:S:1:pos:R:3 pbc="F F F"
O       -0.01877006       0.00949255      -0.00714433
H       -0.00705427      -0.00312543       0.96788661
H        2.23685599      -0.00843159       0.73308896
O        2.24269757      -0.55815428       1.53856712
4
Properties=species:S:1:pos:R:3 pbc="F F F"
O       -0.02046655       0.01160056      -0.00793430
H       -0.00613341      -0.00477805       0.96736783
H        2.23577351      -0.01004434       0.73258772
O        2.24455567      -0.55699690       1.54037711
4
Properties=species:S:1:pos:R:3 pbc="F F F"
O       -0.02104272       0.01232809      -0.00796586
H       -0.00581854      -0.00534989       0.96695177
H        2.23540066      -0.01074426       0.73261599
O        2.24518982      -0.55645269       1.54079646
4
Properties=species:S:1:pos:R:3 pbc="F F F"
O       -0.02252781       0.01420917      -0.00867533
H       -0.00500645      -0.00683155       0.96651345
H        2.23444249      -0.01217586       0.73214259
O        2.24682098      -0.55542050       1.54241766
4
Properties=species:S:1:pos:R:3 pbc="F F F"
O       -0.02319456       0.01506997      -0.00872509
H       -0.00464000      -0.00751159       0.96604369
H        2.23400675      -0.01299432       0.73215471
O        2.24755703      -0.55478281       1.54292505
4
Properties=species:S:1:pos:R:3 pbc="F F F"
O       -0.02449161       0.01675405      -0.00936442
H       -0.00392570      -0.00884608       0.96567879
H        2.23315996      -0.01426764       0.73170178
O        2.24898656      -0.55385908       1.54438221
4
Properties=species:S:1:pos:R:3 pbc="F F F"
O       -0.02526218       0.01777467      -0.00943638
H       -0.00349975      -0.00965711       0.96514865
H        2.23265099      -0.01522705       0.73169033
O        2.24984016      -0.55310926       1.54499576
4
Properties=species:S:1:pos:R:3 pbc="F F F"
O       -0.02639442       0.01928688      -0.01001546
H       -0.00287174      -0.01086348       0.96484968
H        2.23190246      -0.01636133       0.73125355
O        2.25109291      -0.55228081       1.54631059
4
Properties=species:S:1:pos:R:3 pbc="F F F"
O       -0.02728922       0.02050592      -0.01011549
H       -0.00237414      -0.01183834       0.96424864
H        2.23130465      -0.01749441       0.73120857
O        2.25208792      -0.55139191       1.54705664
4
Properties=species:S:1:pos:R:3 pbc="F F F"
O       -0.02828459       0.02187749      -0.01064551
H       -0.00181788      -0.01294046       0.96400556
H        2.23063765      -0.01851426       0.73078302
O        2.25319403      -0.55064152       1.54825529
4
Properties=species:S:1:pos:R:3 pbc="F F F"
O       -0.02932529       0.02333988      -0.01077836
H       -0.00123538      -0.01411785       0.96332078
H        2.22993362      -0.01985997       0.73069312
O        2.25435626      -0.54958080       1.54916283
4
Properties=species:S:1:pos:R:3 pbc="F F F"
O       -0.03020719       0.02459785      -0.01126826
H       -0.00073847      -0.01513652       0.96312467
H        2.22933380      -0.02078699       0.73027461
O        2.25534107      -0.54889308       1.55026733
4
Properties=species:S:1:pos:R:3 pbc="F F F"
O       -0.03142099       0.02636313      -0.01143917
H       -0.00005415      -0.01656814       0.96233915
H        2.22850111      -0.02239728       0.73012446
O        2.25670324      -0.54761645       1.55137393
4
Properties=species:S:1:pos:R:3 pbc="F F F"
O       -0.03220891       0.02753160      -0.01189604
H        0.00039394      -0.01752225       0.96218216
H        2.22795612      -0.02325103       0.72970899
O        2.25758806      -0.54697706       1.55240325
4
Properties=species:S:1:pos:R:3 pbc="F F F"
O       -0.03362117       0.02966695      -0.01210755
H        0.00119677      -0.01926769       0.96127716
H        2.22697168      -0.02518550       0.72948013
O        2.25918193      -0.54543250       1.55374863
4
Properties=species:S:1:pos:R:3 pbc="F F F"
O       -0.03433020       0.03076624      -0.01253633
H        0.00160438      -0.02017351       0.96115260
H        2.22647165      -0.02598284       0.72906417
O        2.25998340      -0.54482865       1.55471792
4
Properties=species:S:1:pos:R:3 pbc="F F F"
O       -0.03596153       0.03334591      -0.01278689
H        0.00254085      -0.02230042       0.96010842
H        2.22531308      -0.02830843       0.72873430
O        2.26183682      -0.54295580       1.55634253
4
Properties=species:S:1:pos:R:3 pbc="F F F"
O       -0.03660243       0.03439227      -0.01319036
H        0.00291407      -0.02317126       0.96001074
H        2.22485064      -0.02906323       0.72831508
O        2.26256693      -0.54237653       1.55726291
4
Properties=species:S:1:pos:R:3 pbc="F F F"
O       -0.03846138       0.03749017      -0.01347157
H        0.00399390      -0.02574991       0.95880954
H        2.22350079      -0.03184821       0.72785879
O        2.26469591      -0.54011080       1.55920160
4
Properties=species:S:1:pos:R:3 pbc="F F F"
O       -0.03904117       0.03849602      -0.01385066
H        0.00433692      -0.02659624       0.95873415
H        2.22307086      -0.03257154       0.72743435
O        2.26536261      -0.53954699       1.56008052
4
Properties=species:S:1:pos:R:3 pbc="F F F"
O       -0.04110931       0.04216292      -0.01414291
H        0.00555598      -0.02968075       0.95736740
H        2.22152837      -0.03586589       0.72682769
O        2.26775417      -0.53683504       1.56234617
4
Properties=species:S:1:pos:R:3 pbc="F F F"
O       -0.04163242       0.04313761      -0.01449697
H        0.00587161      -0.03051065       0.95731014
H        2.22112748      -0.03656664       0.72639711
O        2.26836254      -0.53627907       1.56318808
4
Properties=species:S:1:pos:R:3 pbc="F F F"
O       -0.04385164       0.04737160      -0.01476756
H        0.00720409      -0.03411319       0.95578717
H        2.21941757      -0.04037590       0.72562520
O        2.27095920      -0.53310126       1.56575356
4
Properties=species:S:1:pos:R:3 pbc="F F F"
O       -0.04432041       0.04832065      -0.01509471
H        0.00749395      -0.03493148       0.95574422
H        2.21904381      -0.04106013       0.72518913
O        2.27151187      -0.53254779       1.56655973
4
Properties=species:S:1:pos:R:3 pbc="F F F"
O       -0.04660155       0.05306217      -0.01530363
H        0.00889605      -0.03901527       0.95409198
H        2.21721514      -0.04533961       0.72425029
O        2.27421958      -0.52892604       1.56935972
4
Properties=species:S:1:pos:R:3 pbc="F F F"
O       -0.04701691       0.05398655      -0.01560157
H        0.00916083      -0.03982263       0.95406027
H        2.21686787      -0.04600959       0.72381106
O        2.27471742      -0.52837309       1.57012860
4
Properties=species:S:1:pos:R:3 pbc="F F F"
O       -0.04925393       0.05911684      -0.01570986
H        0.01057714      -0.04429699       0.95232143
H        2.21498621      -0.05066153       0.72272112
O        2.27741980      -0.52437707       1.57306567
4
Properties=species:S:1:pos:R:3 pbc="F F F"
O       -0.04961676       0.06001404      -0.01597675
H        0.01081721      -0.04509065       0.95229840
H        2.21466528      -0.05131655       0.72228248
O        2.27786348      -0.52382560       1.57379423
4
Properties=species:S:1:pos:R:3 pbc="F F F"
O       -0.05171594       0.06539008      -0.01595688
H        0.01219626      -0.04983803       0.95051891
H        2.21279401      -0.05621966       0.72106952
O        2.28045489      -0.51955114       1.57676681
4
Properties=species:S:1:pos:R:3 pbc="F F F"
O       -0.05202779       0.06625521      -0.01619199
H        0.01241203      -0.05061270       0.95050260
H        2.21249923      -0.05685663       0.72063610
O        2.28084574      -0.51900463       1.57745166
4
Properties=species:S:1:pos:R:3 pbc="F F F"
O       -0.05392452       0.07174148      -0.01603188
H        0.01371568      -0.05551572       0.94872213
H        2.21068654      -0.06189351       0.71933326
O        2.28325152      -0.51455101       1.58037484
4
Properties=species:S:1:pos:R:3 pbc="F F F"
O       -0.05418800       0.07256891      -0.01623575
H        0.01390780      -0.05626512       0.94871106
H        2.21041735      -0.06250819       0.71890984
O        2.28359206      -0.51401436       1.58101320
4
Properties=species:S:1:pos:R:3 pbc="F F F"
O       -0.05584947       0.07805755      -0.01593683
H        0.01511343      -0.06122564       0.94695833
H        2.20869201      -0.06758297       0.71754885
O        2.28577324      -0.50946770       1.58382800
4
Properties=species:S:1:pos:R:3 pbc="F F F"
O       -0.05606818       0.07884213      -0.01611109
H        0.01528287      -0.06194371       0.94695139
H        2.20844740      -0.06817099       0.71713984
O        2.28606713      -0.50894618       1.58441823
4
Properties=species:S:1:pos:R:3 pbc="F F F"
O       -0.05748591       0.08425505      -0.01568376
H        0.01637988      -0.06688683       0.94524500
H        2.20682243      -0.07321200       0.71574808
O        2.28801281      -0.50437498       1.58708903
4
Properties=species:S:1:pos:R:3 pbc="F F F"
O       -0.05766414       0.08499267      -0.01583082
H        0.01652783      -0.06756839       0.94524131
H        2.20660101      -0.07376954       0.71535719
O        2.28826451      -0.50387350       1.58763068
4
Properties=species:S:1:pos:R:3 pbc="F F F"
O       -0.05884509       0.09027652      -0.01529030
H        0.01751324      -0.07243963       0.94359242
H        2.20507896      -0.07872596       0.71395694
O        2.28998211      -0.49932970       1.59013931
4
Properties=species:S:1:pos:R:3 pbc="F F F"
O       -0.05898743       0.09096435      -0.01541297
H        0.01764104      -0.07308067       0.94359128
H        2.20487917      -0.07925007       0.71358708
O        2.29019644      -0.49885237       1.59063297
4
Properties=species:S:1:pos:R:3 pbc="F F F"
O       -0.05994637       0.09608070      -0.01477674
H        0.01851547      -0.07783827       0.94200699
H        2.20345759      -0.08408376       0.71219680
O        2.29170253      -0.49437743       1.59297131
4
Properties=species:S:1:pos:R:3 pbc="F F F"
O       -0.06005746       0.09671707      -0.01487794
H        0.01862454      -0.07843597       0.94200782
H        2.20327784      -0.08457236       0.71185015
O        2.29188430      -0.49392750       1.59341833
4
Properties=species:S:1:pos:R:3 pbc="F F F"
O       -0.06081498       0.10164999      -0.01416283
H        0.01939236      -0.08305880       0.94048952
H        2.20194886      -0.08926530       0.71048142
O        2.29320297      -0.48954465       1.59559025
4
Properties=species:S:1:pos:R:3 pbc="F F F"
O       -0.06089924       0.10223409      -0.01424553
H        0.01948410      -0.08361122       0.94049199
H        2.20178769      -0.08971689       0.71015940
O        2.29335665      -0.48912474       1.59599250
4
Properties=species:S:1:pos:R:3 pbc="F F F"
O       -0.06147249       0.10694682      -0.01347107
H        0.02014588      -0.08805874       0.93904756
H        2.20055077      -0.09423115       0.70882943
O        2.29450506      -0.48487569       1.59799244
4
Properties=species:S:1:pos:R:3 pbc="F F F"
O       -0.06153417       0.10747919      -0.01353798
H        0.02022182      -0.08856535       0.93905119
H        2.20040669      -0.09464548       0.70853280
O        2.29463488      -0.48448713       1.59835236
4
Properties=species:S:1:pos:R:3 pbc="F F F"
O       -0.06194455       0.11196083      -0.01272116
H        0.02078215      -0.09282126       0.93768185
H        2.19925573      -0.09896690       0.70725034
O        2.29563589      -0.48039142       1.60018732
4
Properties=species:S:1:pos:R:3 pbc="F F F"
O       -0.06198747       0.11244240      -0.01277483
H        0.02084373      -0.09328203       0.93768636
H        2.19912743      -0.09934399       0.70697940
O        2.29574553      -0.48003515       1.60050743
4
Properties=species:S:1:pos:R:3 pbc="F F F"
O       -0.06225497       0.11668410      -0.01193168
H        0.02130687      -0.09733241       0.93639334
H        2.19805741      -0.10346033       0.70575175
O        2.29661990      -0.47611013       1.60218496
4
Properties=species:S:1:pos:R:3 pbc="F F F"
O       -0.06228253       0.11711636      -0.01197442
H        0.02135549      -0.09774795       0.93639851
H        2.19794367      -0.10380070       0.70550636
O        2.29671259      -0.47578647       1.60246792
4
Properties=species:S:1:pos:R:3 pbc="F F F"
O       -0.06242577       0.12111373      -0.01111948
H        0.02172576      -0.10158355       0.93518224
H        2.19694943      -0.10770390       0.70433875
O        2.29747978      -0.47204505       1.60399685
4
Properties=species:S:1:pos:R:3 pbc="F F F"
O       -0.06244094       0.12149867      -0.01115330
H        0.02176280      -0.10195512       0.93518786
H        2.19684901      -0.10800857       0.70411840
O        2.29755835      -0.47175374       1.60424540
