5
Properties=species:S:1:pos:R:3 pbc="F F F"
H        0.87231980      -0.54403684       0.22213897
O        1.65726214       0.01455988       0.06095871
O       -1.13713539      -0.21423843       0.18275426
H       -0.96785766       0.72876266       0.25552709
H       -2.06711670      -0.29540471      -0.03916628
5
Properties=species:S:1:pos:R:3 pbc="F F F"
H        0.87330544      -0.54543947       0.22405359
O        1.65673439       0.01579416       0.05967395
O       -1.13684557      -0.21494379       0.18153598
H       -0.96747770       0.72892878       0.25613579
H       -2.06824437      -0.29469711      -0.03918656
5
Properties=species:S:1:pos:R:3 pbc="F F F"
H        0.88709303      -0.55710100       0.24231803
O        1.64677154       0.02454574       0.04738020
O       -1.13838175      -0.21479063       0.16884978
H       -0.96580174       0.72578472       0.26227825
H       -2.07220889      -0.28879627      -0.03861351
5
Properties=species:S:1:pos:R:3 pbc="F F F"
H        0.88827671      -0.55874944       0.24451381
O        1.64600982       0.02584553       0.04586138
O       -1.13799473      -0.21539111       0.16747614
H       -0.96554749       0.72608849       0.26304836
H       -2.07327212      -0.28815090      -0.03868695
5
Properties=species:S:1:pos:R:3 pbc="F F F"
H        0.90266230      -0.57054154       0.26238904
O        1.63443248       0.03349874       0.03365723
O       -1.13872980      -0.21390406       0.15510209
H       -0.96510898       0.72415736       0.26954081
H       -2.07578382      -0.28356795      -0.03847642
5
Properties=species:S:1:pos:R:3 pbc="F F F"
H        0.90404446      -0.57244472       0.26482268
O        1.63338892       0.03485577       0.03194256
O       -1.13822808      -0.21436382       0.15357338
H       -0.96498572       0.72460669       0.27045624
H       -2.07674738      -0.28301136      -0.03858212
5
Properties=species:S:1:pos:R:3 pbc="F F F"
H        0.91886246      -0.58421318       0.28206422
O        1.62017311       0.04143942       0.02012363
O       -1.13813395      -0.21167740       0.14141901
H       -0.96548284       0.72373405       0.27712056
H       -2.07794658      -0.27964032      -0.03851468
5
Properties=species:S:1:pos:R:3 pbc="F F F"
H        0.92041851      -0.58634832       0.28468116
O        1.61881522       0.04283111       0.01826077
O       -1.13750524      -0.21196578       0.13974094
H       -0.96548247       0.72432400       0.27815712
H       -2.07877382      -0.27919845      -0.03862725
5
Properties=species:S:1:pos:R:3 pbc="F F F"
H        0.93548683      -0.59791915       0.30113479
O        1.60398109       0.04838376       0.00702166
O       -1.13657884      -0.20822676       0.12773341
H       -0.96664347       0.72433885       0.28485133
H       -2.07877342      -0.27693414      -0.03852845
5
Properties=species:S:1:pos:R:3 pbc="F F F"
H        0.93718932      -0.60025524       0.30388846
O        1.60228158       0.04979314       0.00505217
O       -1.13581701      -0.20832395       0.12591058
H       -0.96674896       0.72505231       0.28598305
H       -2.07943275      -0.27662369      -0.03862152
5
Properties=species:S:1:pos:R:3 pbc="F F F"
H        0.95233439      -0.61147503       0.31946930
O        1.58587809       0.05435667      -0.00547062
O       -1.13408254      -0.20366094       0.11395073
H       -0.96832228       0.72578425       0.29263005
H       -2.07833547      -0.27536238      -0.03836672
5
Properties=species:S:1:pos:R:3 pbc="F F F"
H        0.95414569      -0.61396827       0.32231117
O        1.58382500       0.05576403      -0.00750211
O       -1.13319018      -0.20355421       0.11198870
H       -0.96850706       0.72659520       0.29383242
H       -2.07880126      -0.27519419      -0.03841745
5
Properties=species:S:1:pos:R:3 pbc="F F F"
H        0.96912998      -0.62465684       0.33700301
O        1.56591598       0.05934345      -0.01725492
O       -1.13066825      -0.19807410       0.09999589
H       -0.97024732       0.72788421       0.30040292
H       -2.07665820      -0.27485415      -0.03793416
5
Properties=species:S:1:pos:R:3 pbc="F F F"
H        0.97100598      -0.62725902       0.33990520
O        1.56349512       0.06072778      -0.01932248
O       -1.12964673      -0.19775571       0.09789629
H       -0.97047674       0.72876445       0.30166074
H       -2.07690544      -0.27483492      -0.03792701
5
Properties=species:S:1:pos:R:3 pbc="F F F"
H        0.98552778      -0.63723230       0.35370656
O        1.54411298       0.06333106      -0.02830353
O       -1.12634115      -0.19155367       0.08586208
H       -0.97212583       0.73046564       0.30814753
H       -2.07370158      -0.27536817      -0.03719990
5
Properties=species:S:1:pos:R:3 pbc="F F F"
H        0.98742507      -0.63990780       0.35666330
O        1.54128506       0.06468136      -0.03040257
O       -1.12518301      -0.19101574       0.08362336
H       -0.97235650       0.73139184       0.30945777
H       -2.07369844      -0.27550709      -0.03712912
5
Properties=species:S:1:pos:R:3 pbc="F F F"
H        1.00116376      -0.64902380       0.36954315
O        1.52043271       0.06635110      -0.03860423
O       -1.12108230      -0.18419279       0.07161792
H       -0.97366852       0.73337569       0.31585485
H       -2.06937347      -0.27686763      -0.03619895
5
Properties=species:S:1:pos:R:3 pbc="F F F"
H        1.00304022      -0.65175488       0.37255988
O        1.51712960       0.06766824      -0.04073998
O       -1.11976720      -0.18342765       0.06923919
H       -0.97385404       0.73433096       0.31722225
H       -2.06907638      -0.27717410      -0.03606860
5
Properties=species:S:1:pos:R:3 pbc="F F F"
H        1.01566415      -0.65988410       0.38446308
O        1.49483644       0.06845713      -0.04815504
O       -1.11487569      -0.17610546       0.05744007
H       -0.97458431       0.73648788       0.32349930
H       -2.06356841      -0.27931288      -0.03503467
5
Properties=species:S:1:pos:R:3 pbc="F F F"
H        1.01748801      -0.66267501       0.38757060
O        1.49093601       0.06975108      -0.05035374
O       -1.11336625      -0.17509674       0.05491637
H       -0.97466787       0.73746804       0.32493941
H       -2.06291771      -0.27980480      -0.03485991
5
Properties=species:S:1:pos:R:3 pbc="F F F"
H        1.02869462      -0.66971144       0.39842405
O        1.46725753       0.06972660      -0.05697857
O       -1.10769461      -0.16744312       0.04359489
H       -0.97460475       0.73970610       0.33103058
H       -2.05618060      -0.28263557      -0.03385821
5
Properties=species:S:1:pos:R:3 pbc="F F F"
H        1.03043708      -0.67258610       0.40167083
O        1.46256684       0.07101631      -0.05928262
O       -1.10592491      -0.16616975       0.04092327
H       -0.97451908       0.74071753       0.33256439
H       -2.05508773      -0.28333542      -0.03366315
5
Properties=species:S:1:pos:R:3 pbc="F F F"
H        1.04004562      -0.67847279       0.41135600
O        1.43762844       0.07029100      -0.06507664
O       -1.09954438      -0.15840011       0.03042171
H       -0.97348717       0.74296480       0.33836051
H       -2.04717033      -0.28674034      -0.03284885
5
Properties=species:S:1:pos:R:3 pbc="F F F"
H        1.04170306      -0.68148978       0.41481411
O        1.43182494       0.07161450      -0.06754481
O       -1.09741461      -0.15682333       0.02759352
H       -0.97313379       0.74403169       0.34001956
H       -2.04550741      -0.28769051      -0.03266965
5
Properties=species:S:1:pos:R:3 pbc="F F F"
H        1.04961266      -0.68619118       0.42319746
O        1.40582588       0.07029674      -0.07243436
O       -1.09042496      -0.14918227       0.01824672
H       -0.97101454       0.74623859       0.34538833
H       -2.03652686      -0.29151932      -0.03218543
5
Properties=species:S:1:pos:R:3 pbc="F F F"
H        1.05118309      -0.68944034       0.42697368
O        1.39836347       0.07170156      -0.07514682
O       -1.08775770      -0.14723450       0.01524134
H       -0.97023968       0.74740676       0.34721874
H       -2.03407700      -0.29279091      -0.03207421
5
Properties=species:S:1:pos:R:3 pbc="F F F"
H        1.05741604      -0.69292308       0.43394881
O        1.37158797       0.06985883      -0.07905712
O       -1.08031340      -0.13994683       0.00731247
H       -0.96697346       0.74955669       0.35204355
H       -2.02424496      -0.29690305      -0.03203497
5
Properties=species:S:1:pos:R:3 pbc="F F F"
H        1.05891072      -0.69653029       0.43820607
O        1.36151335       0.07139576      -0.08212956
O       -1.07680672      -0.13748503       0.00410108
H       -0.96549495       0.75090817       0.35411879
H       -2.02065021      -0.29864605      -0.03208366
5
Properties=species:S:1:pos:R:3 pbc="F F F"
H        1.06360628      -0.69879316       0.44371517
O        1.33415603       0.06905940      -0.08499970
O       -1.06905471      -0.13077376      -0.00229422
H       -0.96111943       0.75302664       0.35833774
H       -2.01011599      -0.30287655      -0.03254626
5
Properties=species:S:1:pos:R:3 pbc="F F F"
H        1.06693509      -0.70397628       0.45132331
O        1.30310097       0.06957343      -0.08991372
O       -1.05930430      -0.12398531      -0.00848713
H       -0.95499343       0.75603564       0.36286595
H       -1.99826614      -0.30800492      -0.03357569
5
Properties=species:S:1:pos:R:3 pbc="F F F"
H        1.06978086      -0.70708618       0.45702154
O        1.27048651       0.06848746      -0.09313348
O       -1.04973392      -0.11725381      -0.01335527
H       -0.94747275       0.75900824       0.36688723
H       -1.98558850      -0.31351313      -0.03520731
5
Properties=species:S:1:pos:R:3 pbc="F F F"
H        1.07181600      -0.71028503       0.46231866
O        1.23766142       0.06799395      -0.09616169
O       -1.04034053      -0.11082731      -0.01698784
H       -0.93858507       0.76229920       0.37050200
H       -1.97307962      -0.31953825      -0.03745842
5
Properties=species:S:1:pos:R:3 pbc="F F F"
H        1.07343858      -0.71249864       0.46647364
O        1.20472593       0.06698485      -0.09820832
O       -1.03174359      -0.10450485      -0.01936864
H       -0.92818609       0.76589380       0.37370628
H       -1.96076264      -0.32623259      -0.04039023
5
Properties=species:S:1:pos:R:3 pbc="F F F"
H        1.07476264      -0.71443799       0.47008775
O        1.17187760       0.06607162      -0.09981118
O       -1.02378836      -0.09824659      -0.02076121
H       -0.91649783       0.76982138       0.37660273
H       -1.94888187      -0.33356586      -0.04390537
5
Properties=species:S:1:pos:R:3 pbc="F F F"
H        1.07593452      -0.71581578       0.47295580
O        1.13924119       0.06496021      -0.10073212
O       -1.01693135      -0.09196198      -0.02114112
H       -0.90349244       0.77397636       0.37913698
H       -1.93727973      -0.34151624      -0.04800683
5
Properties=species:S:1:pos:R:3 pbc="F F F"
H        1.07705511      -0.71672200       0.47520234
O        1.10678236       0.06367036      -0.10104883
O       -1.01044606      -0.08573661      -0.02081677
H       -0.88952625       0.77838559       0.38141044
H       -1.92639296      -0.34995477      -0.05253446
5
Properties=species:S:1:pos:R:3 pbc="F F F"
H        1.07819486      -0.71712675       0.47684999
O        1.07447453       0.06212098      -0.10075091
O       -1.00550884      -0.07969475      -0.01986799
H       -0.87502884       0.78248512       0.38323885
H       -1.91465952      -0.35814204      -0.05725723
5
Properties=species:S:1:pos:R:3 pbc="F F F"
H        1.07920865      -0.71692033       0.47775669
O        1.04485275       0.06029509      -0.09986523
O       -0.99439164      -0.07575438      -0.02004241
H       -0.86164768       0.78907713       0.38608663
H       -1.91054989      -0.36705495      -0.06172297
5
Properties=species:S:1:pos:R:3 pbc="F F F"
H        1.07984271      -0.71633987       0.47799633
O        1.02298228       0.05863552      -0.09879900
O       -0.97346273      -0.07172314      -0.02070383
H       -0.85237080       0.79552336       0.38890069
H       -1.91951927      -0.37645331      -0.06518147
5
Properties=species:S:1:pos:R:3 pbc="F F F"
H        1.08030417      -0.71562334       0.47798180
O        1.00397909       0.05704632      -0.09766925
O       -0.94714836      -0.06827937      -0.02201199
H       -0.84473411       0.80284149       0.39215910
H       -1.93492861      -0.38634253      -0.06824695
5
Properties=species:S:1:pos:R:3 pbc="F F F"
H        1.08056610      -0.71493035       0.47782319
O        0.98904202       0.05572912      -0.09665562
O       -0.91875846      -0.06422588      -0.02307831
H       -0.83936882       0.80876983       0.39482358
H       -1.95400865      -0.39570015      -0.07070013
5
Properties=species:S:1:pos:R:3 pbc="F F F"
H        1.08068078      -0.71427090       0.47759261
O        0.97634316       0.05460256      -0.09572236
O       -0.88954464      -0.05945553      -0.02375638
H       -0.83552330       0.81317314       0.39681202
H       -1.97448380      -0.40440671      -0.07271318
5
Properties=species:S:1:pos:R:3 pbc="F F F"
H        1.08070143      -0.71361364       0.47731591
O        0.96448227       0.05355877      -0.09481012
O       -0.85990750      -0.05439318      -0.02424669
H       -0.83246479       0.81674161       0.39843075
H       -1.99533923      -0.41265100      -0.07447713
5
Properties=species:S:1:pos:R:3 pbc="F F F"
H        1.08065859      -0.71293621       0.47699777
O        0.95295545       0.05253937      -0.09389038
O       -0.82999856      -0.04933770      -0.02470604
H       -0.82984442       0.81997304       0.39990632
H       -2.01629887      -0.42059594      -0.07609495
5
Properties=species:S:1:pos:R:3 pbc="F F F"
H        1.08056179      -0.71225778       0.47665682
O        0.94152081       0.05154941      -0.09296942
O       -0.79983492      -0.04438260      -0.02517852
H       -0.82756306       0.82300500       0.40129959
H       -2.03721244      -0.42827147      -0.07759575
5
Properties=species:S:1:pos:R:3 pbc="F F F"
H        1.08039705      -0.71165261       0.47634419
O        0.92973135       0.05065840      -0.09208750
O       -0.76932322      -0.03946848      -0.02559889
H       -0.82565060       0.82562874       0.40250712
H       -2.05768240      -0.43552347      -0.07895221
5
Properties=species:S:1:pos:R:3 pbc="F F F"
H        1.08008591      -0.71108122       0.47605531
O        0.91666212       0.04987412      -0.09120192
O       -0.73834476      -0.03437209      -0.02578662
H       -0.82405368       0.82724085       0.40325135
H       -2.07687740      -0.44201911      -0.08010540
5
Properties=species:S:1:pos:R:3 pbc="F F F"
H        1.07967441      -0.71041266       0.47573914
O        0.90295847       0.04911655      -0.09023817
O       -0.70728164      -0.02901010      -0.02579493
H       -0.82235326       0.82816051       0.40369182
H       -2.09552578      -0.44821172      -0.08118515
5
Properties=species:S:1:pos:R:3 pbc="F F F"
H        1.07922980      -0.70958789       0.47538687
O        0.88993516       0.04840190      -0.08918222
O       -0.67662386      -0.02329121      -0.02569342
H       -0.82021891       0.82874138       0.40400617
H       -2.11485000      -0.45462161      -0.08230469
5
Properties=species:S:1:pos:R:3 pbc="F F F"
H        1.07896660      -0.70898586       0.47525005
O        0.87688910       0.04806473      -0.08820935
O       -0.64602829      -0.01803690      -0.02593633
H       -0.81784654       0.82970457       0.40454053
H       -2.13450867      -0.46110400      -0.08343216
5
Properties=species:S:1:pos:R:3 pbc="F F F"
H        1.07887662      -0.70777482       0.47491109
O        0.86883443       0.04774461      -0.08684759
O       -0.61805526      -0.01138040      -0.02591791
H       -0.81391464       0.83010637       0.40490566
H       -2.15826891      -0.46905343      -0.08483843
5
Properties=species:S:1:pos:R:3 pbc="F F F"
H        1.07959786      -0.70712217       0.47523663
O        0.86545184       0.04873537      -0.08569704
O       -0.59395712      -0.00567727      -0.02691418
H       -0.80848113       0.83176348       0.40601511
H       -2.18513921      -0.47805706      -0.08642770
5
Properties=species:S:1:pos:R:3 pbc="F F F"
H        1.08145646      -0.70573542       0.47537299
O        0.87049419       0.04986292      -0.08360990
O       -0.57773606       0.00144408      -0.02819838
H       -0.80043925       0.83259021       0.40690069
H       -2.21630310      -0.48851944      -0.08825258
5
Properties=species:S:1:pos:R:3 pbc="F F F"
H        1.08496635      -0.70610917       0.47693899
O        0.87633280       0.05331429      -0.08199136
O       -0.56507315       0.00493999      -0.03210982
H       -0.79147835       0.83631120       0.40934304
H       -2.24727542      -0.49881398      -0.08996804
5
Properties=species:S:1:pos:R:3 pbc="F F F"
H        1.08865580      -0.70440010       0.47694578
O        0.88300358       0.05424475      -0.07849335
O       -0.55605576       0.01201253      -0.03462480
H       -0.78190744       0.83613423       0.40984361
H       -2.27622394      -0.50834908      -0.09145842
5
Properties=species:S:1:pos:R:3 pbc="F F F"
H        1.09291863      -0.70520511       0.47885715
O        0.88873381       0.05808261      -0.07665699
O       -0.54658447       0.01420638      -0.03979775
H       -0.77309566       0.84013477       0.41260975
H       -2.30450007      -0.51757631      -0.09279934
5
Properties=species:S:1:pos:R:3 pbc="F F F"
H        1.09672890      -0.70357078       0.47893057
O        0.89544432       0.05887386      -0.07308594
O       -0.53966111       0.02107152      -0.04262735
H       -0.76408508       0.83942503       0.41295093
H       -2.33095479      -0.52615729      -0.09395539
5
Properties=species:S:1:pos:R:3 pbc="F F F"
H        1.10100884      -0.70431281       0.48083296
O        0.90145616       0.06254598      -0.07108373
O       -0.53108127       0.02326721      -0.04823139
H       -0.75561906       0.84311674       0.41575030
H       -2.35829242      -0.53497478      -0.09505532
5
Properties=species:S:1:pos:R:3 pbc="F F F"
H        1.10469622      -0.70290238       0.48107475
O        0.90817080       0.06340239      -0.06770304
O       -0.52479038       0.02997382      -0.05124756
H       -0.74722547       0.84220470       0.41606970
H       -2.38337894      -0.54303619      -0.09598103
5
Properties=species:S:1:pos:R:3 pbc="F F F"
H        1.10876508      -0.70351631       0.48286936
O        0.91444607       0.06679118      -0.06560548
O       -0.51670617       0.03226566      -0.05701837
H       -0.73927236       0.84559135       0.41884556
H       -2.40976038      -0.55148955      -0.09687826
5
Properties=species:S:1:pos:R:3 pbc="F F F"
H        1.11082492      -0.70260721       0.48294413
O        0.91846748       0.06709530      -0.06357846
O       -0.51332248       0.03679113      -0.05848436
H       -0.73452267       0.84439904       0.41865240
H       -2.42397501      -0.55603592      -0.09732089
5
Properties=species:S:1:pos:R:3 pbc="F F F"
H        1.11505197      -0.70293581       0.48461057
O        0.92551517       0.07028752      -0.06101724
O       -0.50478177       0.03993089      -0.06460058
H       -0.72612983       0.84741089       0.42137888
H       -2.45218331      -0.56505114      -0.09815880
5
Properties=species:S:1:pos:R:3 pbc="F F F"
H        1.11664872      -0.70229006       0.48470563
O        0.92881284       0.07054934      -0.05945485
O       -0.50224404       0.04377013      -0.06563760
H       -0.72246645       0.84620682       0.42105693
H       -2.46327883      -0.56859389      -0.09845728
5
Properties=species:S:1:pos:R:3 pbc="F F F"
H        1.12084074      -0.70247511       0.48623931
O        0.93620333       0.07354936      -0.05664490
O       -0.49350388       0.04736566      -0.07187948
H       -0.71410693       0.84895432       0.42369863
H       -2.49196102      -0.57775190      -0.09920074
5
Properties=species:S:1:pos:R:3 pbc="F F F"
H        1.12212915      -0.70205486       0.48636587
O        0.93897350       0.07383541      -0.05542103
O       -0.49152307       0.05067544      -0.07262570
H       -0.71117313       0.84780454       0.42330409
H       -2.50093420      -0.58061818      -0.09941040
5
Properties=species:S:1:pos:R:3 pbc="F F F"
H        1.12627508      -0.70214501       0.48775260
O        0.94665132       0.07667765      -0.05237741
O       -0.48259422       0.05466642      -0.07892791
H       -0.70287420       0.85034447       0.42583436
H       -2.52998573      -0.58990120      -0.10006881
5
Properties=species:S:1:pos:R:3 pbc="F F F"
H        1.12733210      -0.70191738       0.48790574
O        0.94898893       0.07700633      -0.05141981
O       -0.48101181       0.05753511      -0.07944669
H       -0.70049253       0.84927338       0.42539173
H       -2.53734446      -0.59225512      -0.10021814
5
Properties=species:S:1:pos:R:3 pbc="F F F"
H        1.13144416      -0.70196099       0.48912955
O        0.95695697       0.07973549      -0.04813587
O       -0.47189346       0.06189612      -0.08575633
H       -0.69225446       0.85164753       0.42777607
H       -2.56678097      -0.60167581      -0.10080059
5
Properties=species:S:1:pos:R:3 pbc="F F F"
H        1.13232930      -0.70189412       0.48930273
O        0.95892615       0.08011188      -0.04738358
O       -0.47061164       0.06438197      -0.08610642
H       -0.69029347       0.85067340       0.42730819
H       -2.57287810      -0.60363079      -0.10090808
5
Properties=species:S:1:pos:R:3 pbc="F F F"
H        1.13643798      -0.70194135       0.49034704
O        0.96714803       0.08277281      -0.04383804
O       -0.46134129       0.06907927      -0.09238354
H       -0.68209623       0.85292267       0.42951010
H       -2.60267625      -0.61319106      -0.10142271
5
Properties=species:S:1:pos:R:3 pbc="F F F"
H        1.13718627      -0.70200372       0.49053115
O        0.96880149       0.08319008      -0.04324778
O       -0.46027510       0.07122931      -0.09260481
H       -0.68047149       0.85205580       0.42903495
H       -2.60776893      -0.61482912      -0.10150068
5
Properties=species:S:1:pos:R:3 pbc="F F F"
H        1.14129927      -0.70210508       0.49137429
O        0.97726059       0.08582085      -0.03943597
O       -0.45084828       0.07622803      -0.09878871
H       -0.67233665       0.85422583       0.43101738
H       -2.63790268      -0.62452730      -0.10195415
5
Properties=species:S:1:pos:R:3 pbc="F F F"
H        1.14194274      -0.70226842       0.49156168
O        0.97865388       0.08627148      -0.03896754
O       -0.44993193       0.07809126      -0.09891807
H       -0.67097509       0.85346782       0.43054802
H       -2.64221737      -0.62591980      -0.10201125
5
Properties=species:S:1:pos:R:3 pbc="F F F"
H        1.14607205      -0.70247009       0.49217790
O        0.98730995       0.08890039      -0.03487989
O       -0.44037138       0.08333787      -0.10495321
H       -0.66293499       0.85560694       0.43227566
H       -2.67260340      -0.63573278      -0.10240761
5
Properties=species:S:1:pos:R:3 pbc="F F F"
H        1.14663188      -0.70271076       0.49236270
O        0.98847944       0.08937396      -0.03450466
O       -0.43957703       0.08494714      -0.10501804
H       -0.66178458       0.85495591       0.43182237
H       -2.67627746      -0.63692391      -0.10244952
5
Properties=species:S:1:pos:R:3 pbc="F F F"
H        1.15080363      -0.70305301       0.49273299
O        0.99727788       0.09202655      -0.03011740
O       -0.42991638       0.09040820      -0.11087636
H       -0.65382155       0.85711034       0.43326804
H       -2.70687134      -0.64684973      -0.10279442
5
Properties=species:S:1:pos:R:3 pbc="F F F"
H        1.15129116      -0.70334984       0.49291033
O        0.99826538       0.09251273      -0.02981534
O       -0.42921209       0.09179522      -0.11089641
H       -0.65284595       0.85656258       0.43283956
H       -2.71002626      -0.64787835      -0.10282529
5
Properties=species:S:1:pos:R:3 pbc="F F F"
H        1.15548157      -0.70385982       0.49301622
O        1.00717674       0.09519647      -0.02514284
O       -0.41945191       0.09742245      -0.11652601
H       -0.64500320       0.85877942       0.43398795
H       -2.74073096      -0.65789618      -0.10312247
5
Properties=species:S:1:pos:R:3 pbc="F F F"
H        1.15591165      -0.70419527       0.49318402
O        1.00801037       0.09568667      -0.02489500
O       -0.41882476       0.09861778      -0.11651960
H       -0.64416743       0.85832353       0.43358839
H       -2.74345759      -0.65879037      -0.10314495
5
Properties=species:S:1:pos:R:3 pbc="F F F"
H        1.16014623      -0.70489035       0.49302540
O        1.01697643       0.09841390      -0.01992280
O       -0.40900642       0.10438097      -0.12192958
H       -0.63642355       0.86062362       0.43443585
H       -2.77422045      -0.66888580      -0.10339600
5
Properties=species:S:1:pos:R:3 pbc="F F F"
H        1.16052219      -0.70524703       0.49318070
O        1.01768608       0.09889723      -0.01971843
O       -0.40844430       0.10540715      -0.12190727
H       -0.63570791       0.86025112       0.43406995
H       -2.77658383      -0.66966613      -0.10341208
