5
Properties=species:S:1:pos:R:3 pbc="F F F"
O        0.90522911      -0.03352590       0.10400260
O       -0.04743881       0.86929638       0.02747870
H        1.13231284      -0.24569657      -0.81809984
H       -1.69941602      -0.79864649       0.04263158
H       -2.02537229      -1.45640818      -0.07371610
5
Properties=species:S:1:pos:R:3 pbc="F F F"
O        0.90446446      -0.03477687       0.10454709
O       -0.04963271       0.86835493       0.02731676
H        1.13229661      -0.24562950      -0.81852178
H       -1.69739823      -0.79730707       0.04248119
H       -2.02441529      -1.45562226      -0.07352631
5
Properties=species:S:1:pos:R:3 pbc="F F F"
O        0.89335978      -0.04213559       0.10415049
O       -0.06559213       0.85374515       0.02644060
H        1.13079642      -0.24423803      -0.81750989
H       -1.67998818      -0.78880300       0.04025560
H       -2.01326105      -1.44354930      -0.07103984
5
Properties=species:S:1:pos:R:3 pbc="F F F"
O        0.89247113      -0.04365508       0.10483765
O       -0.06842444       0.85246339       0.02623717
H        1.13073291      -0.24416662      -0.81802631
H       -1.67746226      -0.78725199       0.04003080
H       -2.01200249      -1.44237046      -0.07078236
5
Properties=species:S:1:pos:R:3 pbc="F F F"
O        0.88196215      -0.05034497       0.10428322
O       -0.08420458       0.83745111       0.02539079
H        1.12893833      -0.24288713      -0.81679431
H       -1.66022441      -0.77890072       0.03785380
H       -2.00115665      -1.43029905      -0.06843654
5
Properties=species:S:1:pos:R:3 pbc="F F F"
O        0.88090533      -0.05218288       0.10512463
O       -0.08782573       0.83570416       0.02513363
H        1.12881152      -0.24280230      -0.81740555
H       -1.65706405      -0.77707245       0.03754504
H       -1.99951222      -1.42862730      -0.06810079
5
Properties=species:S:1:pos:R:3 pbc="F F F"
O        0.87093528      -0.05822756       0.10440733
O       -0.10326771       0.82036363       0.02429185
H        1.12677615      -0.24158464      -0.81595588
H       -1.64016116      -0.76888961       0.03545987
H       -1.98896772      -1.41664259      -0.06590621
5
Properties=species:S:1:pos:R:3 pbc="F F F"
O        0.86962759      -0.06048057       0.10541606
O       -0.10795705       0.81791169       0.02395616
H        1.12654946      -0.24146450      -0.81665180
H       -1.63612600      -0.76665776       0.03504523
H       -1.98677916      -1.41428963      -0.06546869
5
Properties=species:S:1:pos:R:3 pbc="F F F"
O        0.86002997      -0.06598846       0.10457008
O       -0.12326883       0.80199982       0.02308730
H        1.12430049      -0.24026009      -0.81501161
H       -1.61937872      -0.75848861       0.03304620
H       -1.97636808      -1.40224343      -0.06339500
5
Properties=species:S:1:pos:R:3 pbc="F F F"
O        0.85855540      -0.06872118       0.10570868
O       -0.12921813       0.79874779       0.02265523
H        1.12394400      -0.24008737      -0.81573801
H       -1.61438509      -0.75578469       0.03252876
H       -1.97358134      -1.39913532      -0.06285770
5
Properties=species:S:1:pos:R:3 pbc="F F F"
O        0.84970601      -0.07291114       0.10469182
O       -0.14240543       0.78348968       0.02185763
H        1.12169735      -0.23894701      -0.81397649
H       -1.59946589      -0.74846519       0.03080142
H       -1.96421720      -1.38814711      -0.06107741
5
Properties=species:S:1:pos:R:3 pbc="F F F"
O        0.84679134      -0.07724637       0.10561995
O       -0.15272718       0.77651579       0.02111595
H        1.12068351      -0.23845075      -0.81419190
H       -1.59049146      -0.74373671       0.02985934
H       -1.95894137      -1.38206273      -0.06010636
5
Properties=species:S:1:pos:R:3 pbc="F F F"
O        0.84047121      -0.07904996       0.10523087
O       -0.16034854       0.76585833       0.02060989
H        1.11924518      -0.23772988      -0.81332831
H       -1.58109334      -0.73909442       0.02880316
H       -1.95295967      -1.37496484      -0.05901865
5
Properties=species:S:1:pos:R:3 pbc="F F F"
O        0.83419766      -0.08582846       0.10571156
O       -0.17881722       0.75051266       0.01926393
H        1.11686076      -0.23658451      -0.81252081
H       -1.56424533      -0.73020515       0.02708588
H       -1.94268103      -1.36287532      -0.05724358
5
Properties=species:S:1:pos:R:3 pbc="F F F"
O        0.82530504      -0.09108014       0.10606751
O       -0.19660255       0.73126382       0.01784952
H        1.11406203      -0.23519885      -0.81153682
H       -1.54617326      -0.72066058       0.02528249
H       -1.93127642      -1.34930502      -0.05536573
5
Properties=species:S:1:pos:R:3 pbc="F F F"
O        0.81778202      -0.09691726       0.10652018
O       -0.21556467       0.71218982       0.01622578
H        1.11110826      -0.23371641      -0.81045282
H       -1.52815966      -0.71085289       0.02358170
H       -1.91985110      -1.33568403      -0.05357786
5
Properties=species:S:1:pos:R:3 pbc="F F F"
O        0.81023964      -0.10220039       0.10707743
O       -0.23401064       0.69227162       0.01444374
H        1.10794000      -0.23206757      -0.80932965
H       -1.51044053      -0.70099153       0.02197896
H       -1.90841363      -1.32199290      -0.05187352
5
Properties=species:S:1:pos:R:3 pbc="F F F"
O        0.80314110      -0.10739453       0.10767978
O       -0.25256627       0.67210706       0.01256112
H        1.10468143      -0.23034656      -0.80816328
H       -1.49293113      -0.69102382       0.02045771
H       -1.89701029      -1.30832293      -0.05023834
5
Properties=species:S:1:pos:R:3 pbc="F F F"
O        0.79642785      -0.11227805       0.10840851
O       -0.27091393       0.65135482       0.01048584
H        1.10120420      -0.22845462      -0.80694708
H       -1.47573903      -0.68090762       0.01904839
H       -1.88566425      -1.29469530      -0.04869868
5
Properties=species:S:1:pos:R:3 pbc="F F F"
O        0.79007544      -0.11694211       0.10922297
O       -0.28915097       0.63017927       0.00827146
H        1.09757298      -0.22644296      -0.80568981
H       -1.45879899      -0.67064355       0.01772674
H       -1.87438362      -1.28113143      -0.04723438
5
Properties=species:S:1:pos:R:3 pbc="F F F"
O        0.78405147      -0.12135409       0.11010949
O       -0.30725919       0.60857161       0.00594510
H        1.09381790      -0.22433414      -0.80440318
H       -1.44208035      -0.66016686       0.01649464
H       -1.86321500      -1.26769730      -0.04584906
5
Properties=species:S:1:pos:R:3 pbc="F F F"
O        0.77833161      -0.12552479       0.11103653
O       -0.32530147       0.58659790       0.00356170
H        1.09001333      -0.22217787      -0.80310830
H       -1.42556262      -0.64947366       0.01534206
H       -1.85216601      -1.25440235      -0.04453501
5
Properties=species:S:1:pos:R:3 pbc="F F F"
O        0.77289808      -0.12941563       0.11197697
O       -0.34331372       0.56427162       0.00118061
H        1.08624420      -0.22002476      -0.80183545
H       -1.40914903      -0.63839359       0.01428193
H       -1.84136468      -1.24141842      -0.04330708
5
Properties=species:S:1:pos:R:3 pbc="F F F"
O        0.76777615      -0.13305232       0.11294701
O       -0.36140722       0.54174131      -0.00112657
H        1.08264171      -0.21794458      -0.80066900
H       -1.39252538      -0.62649953       0.01334635
H       -1.83117042      -1.22922567      -0.04220080
5
Properties=species:S:1:pos:R:3 pbc="F F F"
O        0.76310726      -0.13651401       0.11401692
O       -0.37965720       0.51939570      -0.00329776
H        1.07935737      -0.21600885      -0.79973640
H       -1.37516603      -0.61305583       0.01260331
H       -1.82232655      -1.21879778      -0.04128909
5
Properties=species:S:1:pos:R:3 pbc="F F F"
O        0.75914557      -0.13989586       0.11521504
O       -0.39796348       0.49790724      -0.00528004
H        1.07652213      -0.21428010      -0.79911231
H       -1.35660109      -0.59735723       0.01213239
H       -1.81578829      -1.21135482      -0.04065810
5
Properties=species:S:1:pos:R:3 pbc="F F F"
O        0.75608910      -0.14327490       0.11635585
O       -0.41615162       0.47779951      -0.00704718
H        1.07413330      -0.21277157      -0.79863272
H       -1.33667472      -0.57919739       0.01196041
H       -1.81208122      -1.20753644      -0.04033937
5
Properties=species:S:1:pos:R:3 pbc="F F F"
O        0.75400830      -0.14668291       0.11711624
O       -0.43406657       0.45926021      -0.00859698
H        1.07207979      -0.21145603      -0.79797492
H       -1.31557743      -0.55889967       0.01205480
H       -1.81112925      -1.20720239      -0.04030216
5
Properties=species:S:1:pos:R:3 pbc="F F F"
O        0.75309917      -0.15017501       0.11773300
O       -0.45112780       0.44335720      -0.00993404
H        1.07047403      -0.21036687      -0.79737031
H       -1.29355503      -0.53668117       0.01245036
H       -1.81357554      -1.21111493      -0.04058202
5
Properties=species:S:1:pos:R:3 pbc="F F F"
O        0.75313685      -0.15376108       0.11794853
O       -0.46753508       0.42943940      -0.01112540
H        1.06909418      -0.20941172      -0.79650315
H       -1.27125102      -0.51364005       0.01301361
H       -1.81813008      -1.21760734      -0.04103661
5
Properties=species:S:1:pos:R:3 pbc="F F F"
O        0.75369512      -0.15749436       0.11845599
O       -0.48230917       0.41861149      -0.01226878
H        1.06810461      -0.20855499      -0.79601513
H       -1.24872489      -0.49009165       0.01381300
H       -1.82545082      -1.22745127      -0.04168809
5
Properties=species:S:1:pos:R:3 pbc="F F F"
O        0.75477557      -0.16150948       0.11870773
O       -0.49617672       0.40990100      -0.01346493
H        1.06718383      -0.20768292      -0.79528604
H       -1.22618881      -0.46658631       0.01476878
H       -1.83427903      -1.23910306      -0.04242856
5
Properties=species:S:1:pos:R:3 pbc="F F F"
O        0.75576477      -0.16559625       0.11926209
O       -0.50838761       0.40334738      -0.01475168
H        1.06653573      -0.20675141      -0.79489116
H       -1.20382095      -0.44321101       0.01593038
H       -1.84477703      -1.25276957      -0.04325263
5
Properties=species:S:1:pos:R:3 pbc="F F F"
O        0.75591214      -0.16994013       0.11989316
O       -0.51714588       0.40084032      -0.01634686
H        1.06583750      -0.20564962      -0.79451810
H       -1.18172010      -0.42093119       0.01749688
H       -1.85756864      -1.26930036      -0.04422805
5
Properties=species:S:1:pos:R:3 pbc="F F F"
O        0.75610388      -0.17444052       0.12043243
O       -0.52176273       0.40337805      -0.01824767
H        1.06538822      -0.20435387      -0.79409644
H       -1.16136975      -0.40039796       0.01955882
H       -1.87304459      -1.28916667      -0.04535011
5
Properties=species:S:1:pos:R:3 pbc="F F F"
O        0.75627210      -0.17851818       0.12052850
O       -0.52120161       0.41072663      -0.02029381
H        1.06547951      -0.20288535      -0.79350125
H       -1.14422282      -0.38220004       0.02215517
H       -1.89101215      -1.31210404      -0.04659158
5
Properties=species:S:1:pos:R:3 pbc="F F F"
O        0.75764217      -0.18182073       0.12056317
O       -0.51775841       0.42014650      -0.02214297
H        1.06671546      -0.20141451      -0.79329942
H       -1.13098034      -0.36524810       0.02503296
H       -1.91030385      -1.33664414      -0.04785671
5
Properties=species:S:1:pos:R:3 pbc="F F F"
O        0.75973051      -0.18421046       0.12024117
O       -0.51260030       0.42970150      -0.02360755
H        1.06906193      -0.20000271      -0.79328880
H       -1.12067140      -0.34854671       0.02805446
H       -1.93020571      -1.36192260      -0.04910226
5
Properties=species:S:1:pos:R:3 pbc="F F F"
O        0.76259803      -0.18596300       0.11967501
O       -0.50614733       0.43960706      -0.02476520
H        1.07250957      -0.19864635      -0.79353811
H       -1.11316107      -0.33229228       0.03124177
H       -1.95048417      -1.38768641      -0.05031643
5
Properties=species:S:1:pos:R:3 pbc="F F F"
O        0.76577994      -0.18736708       0.11887381
O       -0.49919200       0.44927740      -0.02573388
H        1.07666713      -0.19729638      -0.79388951
H       -1.10710353      -0.31601047       0.03454110
H       -1.97083651      -1.41358444      -0.05149449
5
Properties=species:S:1:pos:R:3 pbc="F F F"
O        0.76903547      -0.18853534       0.11793699
O       -0.49147054       0.45907823      -0.02662216
H        1.08141662      -0.19590781      -0.79437493
H       -1.10246538      -0.30004460       0.03799427
H       -1.99120115      -1.43957146      -0.05263713
5
Properties=species:S:1:pos:R:3 pbc="F F F"
O        0.77259337      -0.18973473       0.11676676
O       -0.48428255       0.46809395      -0.02744256
H        1.08651637      -0.19446511      -0.79477766
H       -1.09816721      -0.28350517       0.04148537
H       -2.01134496      -1.46536992      -0.05373488
5
Properties=species:S:1:pos:R:3 pbc="F F F"
O        0.77511059      -0.19074536       0.11577951
O       -0.47524789       0.47830240      -0.02842910
H        1.09155364      -0.19297672      -0.79537338
H       -1.09579805      -0.26980584       0.04506393
H       -2.03030326      -1.48975546      -0.05474394
5
Properties=species:S:1:pos:R:3 pbc="F F F"
O        0.77685160      -0.19137496       0.11522938
O       -0.47390837       0.48038527      -0.02863960
H        1.09360788      -0.19239307      -0.79544747
H       -1.09355741      -0.26231735       0.04627910
H       -2.03767868      -1.49928087      -0.05512439
5
Properties=species:S:1:pos:R:3 pbc="F F F"
O        0.77902269      -0.19237682       0.11399490
O       -0.46512479       0.49000279      -0.02963525
H        1.09827949      -0.19092819      -0.79572011
H       -1.09200752      -0.25016957       0.04966594
H       -2.05485484      -1.52150919      -0.05600846
5
Properties=species:S:1:pos:R:3 pbc="F F F"
O        0.78008854      -0.19282893       0.11386387
O       -0.46463496       0.49093673      -0.02973351
H        1.09967923      -0.19053513      -0.79598492
H       -1.09032755      -0.24502230       0.05039124
H       -2.05949024      -1.52753133      -0.05623967
5
Properties=species:S:1:pos:R:3 pbc="F F F"
O        0.78258976      -0.19406984       0.11236951
O       -0.45566712       0.50077886      -0.03080407
H        1.10475066      -0.18889642      -0.79612582
H       -1.08852948      -0.23140421       0.05401321
H       -2.07782880      -1.55138937      -0.05715580
5
Properties=species:S:1:pos:R:3 pbc="F F F"
O        0.78337679      -0.19445868       0.11235423
O       -0.45514840       0.50159783      -0.03087881
H        1.10601429      -0.18854083      -0.79646418
H       -1.08708285      -0.22694218       0.05463551
H       -2.08184481      -1.55663711      -0.05734973
5
Properties=species:S:1:pos:R:3 pbc="F F F"
O        0.78581465      -0.19577950       0.11073864
O       -0.44631481       0.51125695      -0.03191463
H        1.11103519      -0.18689624      -0.79648606
H       -1.08536498      -0.21336321       0.05817932
H       -2.09985502      -1.58019896      -0.05822026
5
Properties=species:S:1:pos:R:3 pbc="F F F"
O        0.78634649      -0.19608187       0.11083731
O       -0.44596972       0.51178226      -0.03194355
H        1.11204845      -0.18661428      -0.79685973
H       -1.08415046      -0.20978839       0.05862801
H       -2.10295973      -1.58427870      -0.05836503
5
Properties=species:S:1:pos:R:3 pbc="F F F"
O        0.78883629      -0.19750497       0.10915561
O       -0.43707145       0.52147751      -0.03293048
H        1.11716230      -0.18492979      -0.79685372
H       -1.08226491      -0.19556130       0.06214940
H       -2.12134720      -1.60846241      -0.05922379
5
Properties=species:S:1:pos:R:3 pbc="F F F"
O        0.78921534      -0.19775352       0.10930172
O       -0.43672839       0.52193782      -0.03293153
H        1.11804478      -0.18469021      -0.79723863
H       -1.08120927      -0.19249772       0.06250883
H       -2.12400743      -1.61197733      -0.05934336
5
Properties=species:S:1:pos:R:3 pbc="F F F"
O        0.79163140      -0.19917655       0.10758835
O       -0.42791100       0.53152803      -0.03377856
H        1.12303696      -0.18307212      -0.79719025
H       -1.07925287      -0.17824148       0.06583901
H       -2.14218947      -1.63601884      -0.06016154
5
Properties=species:S:1:pos:R:3 pbc="F F F"
O        0.79188779      -0.19936698       0.10778283
O       -0.42765992       0.53184806      -0.03374884
H        1.12375084      -0.18288493      -0.79757310
H       -1.07835116      -0.17573805       0.06608951
H       -2.14431253      -1.63883907      -0.06025338
5
Properties=species:S:1:pos:R:3 pbc="F F F"
O        0.79432323      -0.20077969       0.10608128
O       -0.41873028       0.54149784      -0.03442433
H        1.12869778      -0.18131891      -0.79754803
H       -1.07618155      -0.16097633       0.06924233
H       -2.16279416      -1.66340388      -0.06105424
5
Properties=species:S:1:pos:R:3 pbc="F F F"
O        0.79450977      -0.20093633       0.10629171
O       -0.41848038       0.54181275      -0.03437388
H        1.12931553      -0.18116762      -0.79792164
H       -1.07539436      -0.15882669       0.06943169
H       -2.16463555      -1.66586307      -0.06113087
5
Properties=species:S:1:pos:R:3 pbc="F F F"
O        0.79686618      -0.20224668       0.10461812
O       -0.40963713       0.55139154      -0.03478984
H        1.13402960      -0.17976592      -0.79789847
H       -1.07309902      -0.14416625       0.07225680
H       -2.18284460      -1.69019365      -0.06188960
5
Properties=species:S:1:pos:R:3 pbc="F F F"
O        0.79699309      -0.20236156       0.10484857
O       -0.40945692       0.55160805      -0.03472279
H        1.13451670      -0.17965187      -0.79825286
H       -1.07243041      -0.14241784       0.07237224
H       -2.18430743      -1.69215775      -0.06194815
